# generated using pymatgen
data_Zn2H7C12O7
_symmetry_space_group_name_H-M   'P 1'
_cell_length_a   10.30141828
_cell_length_b   18.60982770
_cell_length_c   17.08170736
_cell_angle_alpha   90.00000000
_cell_angle_beta   90.00000000
_cell_angle_gamma   90.00000000
_symmetry_Int_Tables_number   1
_chemical_formula_structural   Zn2H7C12O7
_chemical_formula_sum   'Zn16 H56 C96 O56'
_cell_volume   3274.69345305
_cell_formula_units_Z   8
loop_
 _symmetry_equiv_pos_site_id
 _symmetry_equiv_pos_as_xyz
  1  'x, y, z'
loop_
 _atom_site_type_symbol
 _atom_site_label
 _atom_site_symmetry_multiplicity
 _atom_site_fract_x
 _atom_site_fract_y
 _atom_site_fract_z
 _atom_site_occupancy
  H  H0  1  0.26665210  0.19690955  0.19600786  1
  C  C1  1  0.16212279  0.38060875  0.11462104  1
  C  C2  1  0.36792141  0.21403140  0.20501172  1
  H  H3  1  0.31839467  0.27253740  0.08100345  1
  O  O4  1  0.08815541  0.42730253  0.13627291  1
  O  O5  1  0.28576430  0.38712680  0.13170015  1
  C  C6  1  0.12402871  0.31542930  0.06670084  1
  O  O7  1  0.31956993  0.07558407  0.17845395  1
  Zn  Zn8  1  0.34185961  0.47871749  0.18881225  1
  C  C9  1  0.39240412  0.28372407  0.22952437  1
  C  C10  1  0.22337453  0.26542579  0.05555960  1
  C  C11  1  0.18761244  0.20642684  0.00995135  1
  O  O12  1  0.49672957  0.49883919  0.11151108  1
  C  C13  1  0.44030973  0.09421863  0.16696751  1
  C  C14  1  0.47589751  0.17031139  0.18549761  1
  H  H15  1  0.24893222  0.15806201  0.00460284  1
  H  H16  1  0.49107475  0.45977472  0.07082550  1
  Zn  Zn17  1  0.26503175  0.05240378  0.29632941  1
  C  C18  1  0.06331290  0.17364762  0.34420976  1
  O  O19  1  0.11859114  0.21587285  0.39202437  1
  O  O20  1  0.46387443  0.09337595  0.33828235  1
  O  O21  1  0.12782288  0.13941165  0.29419030  1
  O  O22  1  0.45838219  0.19162977  0.41095578  1
  O  O23  1  0.42984871  0.42239354  0.28232645  1
  Zn  Zn24  1  0.27309420  0.19743388  0.47158213  1
  H  H25  1  0.31376427  0.31715673  0.25656373  1
  C  C26  1  0.37721256  0.37322060  0.62841029  1
  C  C27  1  0.10909331  0.12139581  0.71976465  1
  H  H28  1  0.18612743  0.38281294  0.56720375  1
  O  O29  1  0.24912947  0.09694792  0.52121169  1
  C  C30  1  0.38967139  0.29386713  0.61041718  1
  O  O31  1  0.30286974  0.26330587  0.57314110  1
  H  H32  1  0.27006782  0.11425692  0.57086588  1
  C  C33  1  0.26541280  0.40957001  0.59858023  1
  O  O34  1  0.22389765  0.10196744  0.72408832  1
  O  O35  1  0.06919181  0.18154052  0.73696760  1
  C  C36  1  0.27210700  0.48354876  0.60797950  1
  C  C37  1  0.47575448  0.40515462  0.67112692  1
  C  C38  1  0.47050243  0.47942846  0.68330384  1
  H  H39  1  0.04799724  0.12925965  0.57282705  1
  C  C40  1  0.01364864  0.07192315  0.68323293  1
  O  O41  1  0.49213464  0.26116789  0.62644123  1
  Zn  Zn42  1  0.29061005  0.06653521  0.84173778  1
  O  O43  1  0.39850084  0.49678494  0.92639384  1
  C  C44  1  0.17835415  0.42059361  0.88955112  1
  O  O45  1  0.41473344  0.13100868  0.91870940  1
  C  C46  1  0.06664576  0.38780275  0.86553223  1
  C  C47  1  0.22565408  0.47840604  0.84307423  1
  C  C48  1  0.45962728  0.18154814  0.87693157  1
  C  C49  1  0.06590117  0.20361884  0.97558995  1
  H  H50  1  0.22744937  0.39787569  0.94140064  1
  O  O51  1  0.42767004  0.18496801  0.80461774  1
  O  O52  1  0.11908461  0.09033430  0.91611577  1
  H  H53  1  0.03114155  0.34108661  0.89902931  1
  C  C54  1  0.03976078  0.47655231  0.76125511  1
  C  C55  1  0.03524727  0.13780843  0.92729637  1
  O  O56  1  0.33174561  0.69715496  0.10467234  1
  H  H57  1  0.10786766  0.59123973  0.16959261  1
  H  H58  1  0.12799188  0.75868739  0.14386317  1
  C  C59  1  0.26660491  0.65729314  0.06004019  1
  C  C60  1  0.12455993  0.67273866  0.05680189  1
  C  C61  1  0.06761069  0.72471459  0.10854961  1
  C  C62  1  0.05615809  0.62693895  0.00591072  1
  O  O63  1  0.31127887  0.60648541  0.01898506  1
  C  C64  1  0.04767147  0.60096230  0.22094734  1
  O  O65  1  0.31473293  0.58809999  0.23480825  1
  Zn  Zn66  1  0.49280931  0.68367911  0.17520238  1
  O  O67  1  0.45196951  0.85481164  0.29748503  1
  O  O68  1  0.09103421  0.96594830  0.29476950  1
  C  C69  1  0.04126490  0.60998085  0.36671794  1
  O  O70  1  0.31340667  0.98186540  0.40350773  1
  C  C71  1  0.25319156  0.59789300  0.29937701  1
  C  C72  1  0.10783262  0.60481091  0.29380430  1
  O  O73  1  0.14176958  0.87897080  0.48446157  1
  H  H74  1  0.29741426  0.72905592  0.36636769  1
  Zn  Zn75  1  0.29354604  0.86193829  0.39534089  1
  O  O76  1  0.31622023  0.75130839  0.41849122  1
  H  H77  1  0.09379377  0.61074619  0.42214814  1
  O  O78  1  0.30281748  0.60458644  0.36422281  1
  H  H79  1  0.39106257  0.98522799  0.37285633  1
  O  O80  1  0.15429330  0.85407207  0.29356566  1
  C  C81  1  0.06592139  0.90111113  0.29273474  1
  Zn  Zn82  1  0.47857345  0.67390928  0.39091159  1
  O  O83  1  0.49857929  0.74170970  0.28401591  1
  O  O84  1  0.46368001  0.88980687  0.48257071  1
  C  C85  1  0.36247014  0.59982699  0.65455348  1
  H  H86  1  0.18992479  0.51530300  0.58554383  1
  C  C87  1  0.37003430  0.51829651  0.64928026  1
  O  O88  1  0.44818955  0.63475606  0.69074481  1
  H  H89  1  0.46583914  0.62628358  0.53402736  1
  O  O90  1  0.13746996  0.77941111  0.55784616  1
  O  O91  1  0.27586064  0.63017381  0.61437569  1
  Zn  Zn92  1  0.37985093  0.89398015  0.71723273  1
  O  O93  1  0.30621204  0.93916348  0.61434291  1
  Zn  Zn94  1  0.32627876  0.72490660  0.54523256  1
  H  H95  1  0.27662424  0.89131426  0.60251575  1
  O  O96  1  0.45600290  0.81288863  0.58583045  1
  Zn  Zn97  1  0.35877338  0.99787640  0.52378489  1
  C  C98  1  0.08280330  0.82984502  0.51962834  1
  H  H99  1  0.01960854  0.86558357  0.70574895  1
  O  O100  1  0.48852334  0.67077021  0.51189892  1
  O  O101  1  0.22983028  0.81820165  0.73591104  1
  H  H102  1  0.10572395  0.58832542  0.96922693  1
  O  O103  1  0.39452920  0.56676888  0.82552621  1
  C  C104  1  0.17355439  0.78525140  0.79230672  1
  O  O105  1  0.23985315  0.74065846  0.83133767  1
  Zn  Zn106  1  0.42006907  0.68663795  0.80142271  1
  O  O107  1  0.35988202  0.96311004  0.80895012  1
  C  C108  1  0.03392766  0.79730174  0.80691502  1
  H  H109  1  0.19788121  0.55407989  0.75260086  1
  C  C110  1  0.35523866  0.51221260  0.86174771  1
  H  H111  1  0.34416404  0.92098129  0.84089177  1
  C  C112  1  0.16043655  0.50808149  0.78069824  1
  H  H113  1  0.01032630  0.74038531  0.91824731  1
  H  H114  1  0.62938804  0.30626490  0.09146687  1
  H  H115  1  0.72189954  0.28119874  0.23474421  1
  C  C116  1  0.69084876  0.43071530  0.01522574  1
  C  C117  1  0.62706616  0.26529915  0.22130573  1
  C  C118  1  0.61324904  0.30206222  0.02602567  1
  O  O119  1  0.74105450  0.42646885  0.08464200  1
  C  C120  1  0.60516163  0.19688902  0.18588815  1
  Zn  Zn121  1  0.67610822  0.48421397  0.17611589  1
  H  H122  1  0.67986016  0.15724251  0.17391093  1
  O  O123  1  0.52420437  0.04994562  0.15041127  1
  C  C124  1  0.99538449  0.31083301  0.03844792  1
  H  H125  1  0.93149154  0.35680769  0.05103962  1
  H  H126  1  0.52583662  0.19639333  0.03510418  1
  C  C127  1  0.52046548  0.31145813  0.23814073  1
  H  H128  1  0.91160404  0.09091372  0.24463060  1
  C  C129  1  0.85700893  0.11998872  0.29344069  1
  C  C130  1  0.72315273  0.10976269  0.30520112  1
  C  C131  1  0.91915007  0.16741445  0.34436461  1
  C  C132  1  0.51630259  0.14713561  0.36713581  1
  H  H133  1  0.67308268  0.06852224  0.27017069  1
  C  C134  1  0.65806514  0.15316733  0.35854130  1
  C  C135  1  0.84821724  0.20803884  0.39993658  1
  C  C136  1  0.71469542  0.20611646  0.40713109  1
  H  H137  1  0.90379651  0.23736086  0.44318821  1
  H  H138  1  0.66068283  0.23884290  0.44783586  1
  O  O139  1  0.64212298  0.41156228  0.27538252  1
  C  C140  1  0.53143064  0.38506576  0.26728256  1
  C  C141  1  0.99169031  0.08523193  0.59900732  1
  H  H142  1  0.80111216  0.14408735  0.70339715  1
  C  C143  1  0.85042329  0.07008692  0.56997272  1
  H  H144  1  0.82286100  0.09676832  0.51630368  1
  C  C145  1  0.61670161  0.04507016  0.60641742  1
  C  C146  1  0.79062557  0.00976637  0.70032147  1
  C  C147  1  0.92343271  0.03415134  0.73595609  1
  C  C148  1  0.75876953  0.02868699  0.61777126  1
  H  H149  1  0.55896673  0.37131058  0.69086225  1
  O  O150  1  0.56421738  0.06513657  0.66714285  1
  O  O151  1  0.75491763  0.18261715  0.72445879  1
  Zn  Zn152  1  0.55370177  0.17258579  0.70482409  1
  O  O153  1  0.79303927  0.41240350  0.73111776  1
  O  O154  1  0.55304704  0.03424357  0.54305718  1
  H  H155  1  0.98091306  0.49604228  0.71350103  1
  H  H156  1  0.71028973  0.00013619  0.74361023  1
  H  H157  1  0.63470558  0.40996785  0.86270877  1
  C  C158  1  0.86359888  0.38207732  0.77654051  1
  O  O159  1  0.93479152  0.13872945  0.88902061  1
  Zn  Zn160  1  0.88396218  0.21823886  0.79460358  1
  H  H161  1  0.87826674  0.25047040  0.95754814  1
  C  C162  1  0.96690052  0.25415152  0.98981998  1
  C  C163  1  0.63934550  0.36213165  0.97844309  1
  O  O164  1  0.83325254  0.32357862  0.81152946  1
  C  C165  1  0.61477216  0.36067176  0.89832880  1
  H  H166  1  0.92974887  0.04194552  0.79892386  1
  O  O167  1  0.69600462  0.48463594  0.97724149  1
  C  C168  1  0.55493212  0.30035320  0.86237536  1
  C  C169  1  0.55915249  0.24067648  0.99607163  1
  C  C170  1  0.53188900  0.24250787  0.91445781  1
  H  H171  1  0.53458169  0.29767999  0.80034047  1
  C  C172  1  0.99401984  0.41482337  0.80198656  1
  O  O173  1  0.65573015  0.72381209  0.10342972  1
  H  H174  1  0.86596048  0.60969660  0.15867792  1
  C  C175  1  0.91381464  0.60529760  0.21627281  1
  C  C176  1  0.92324611  0.62772922  0.00871005  1
  H  H177  1  0.88152845  0.76567903  0.13947213  1
  C  C178  1  0.85863229  0.67766083  0.05887726  1
  C  C179  1  0.93559863  0.72883041  0.10170561  1
  C  C180  1  0.71483092  0.68273393  0.05908193  1
  Zn  Zn181  1  0.51896855  0.55990906  0.00879715  1
  O  O182  1  0.64291601  0.59850017  0.22305759  1
  O  O183  1  0.65173790  0.64711736  0.00736216  1
  H  H184  1  0.67487505  0.91507280  0.44621882  1
  C  C185  1  0.70578983  0.60790905  0.28734083  1
  O  O186  1  0.64588007  0.61271263  0.35070034  1
  H  H187  1  0.98335084  0.76460535  0.31503345  1
  C  C188  1  0.86746882  0.87683858  0.47920315  1
  H  H189  1  0.84876204  0.61116278  0.41692038  1
  C  C190  1  0.67537968  0.83363388  0.28967256  1
  C  C191  1  0.73298030  0.88267537  0.48554053  1
  C  C192  1  0.90688657  0.61004273  0.36346272  1
  C  C193  1  0.90272546  0.80335549  0.30504911  1
  H  H194  1  0.75399381  0.72497093  0.30545990  1
  C  C195  1  0.84929228  0.60835461  0.28964268  1
  C  C196  1  0.53216698  0.80934547  0.28555450  1
  H  H197  1  0.91611525  0.90747689  0.43297213  1
  C  C198  1  0.77230804  0.78187979  0.30407990  1
  C  C199  1  0.69685184  0.90701838  0.27892411  1
  H  H200  1  0.61098326  0.94065045  0.26754887  1
  C  C201  1  0.82760366  0.92773112  0.28178971  1
  C  C202  1  0.92714177  0.87769339  0.29549014  1
  H  H203  1  0.85444416  0.98548876  0.27199568  1
  H  H204  1  0.66421344  0.76496823  0.62993502  1
  C  C205  1  0.72781494  0.79738852  0.58959984  1
  C  C206  1  0.65776645  0.84162237  0.53887011  1
  C  C207  1  0.86159976  0.79106443  0.58063403  1
  Zn  Zn208  1  0.93885791  0.98140881  0.62598571  1
  H  H209  1  0.90673358  0.75050796  0.61798824  1
  H  H210  1  0.77809125  0.86853881  0.70445324  1
  C  C211  1  0.93689522  0.83075747  0.52811709  1
  C  C212  1  0.51309451  0.85144379  0.53613646  1
  O  O213  1  0.56588389  0.83578311  0.74292149  1
  H  H214  1  0.54715751  0.50953709  0.71545845  1
  H  H215  1  0.77621247  0.73888015  0.91439337  1
  C  C216  1  0.82866074  0.77219453  0.87019552  1
  C  C217  1  0.76315744  0.81053188  0.81117668  1
  C  C218  1  0.96677901  0.84032133  0.75209160  1
  C  C219  1  0.62027680  0.80663618  0.80146323  1
  C  C220  1  0.96259199  0.76801702  0.87033458  1
  C  C221  1  0.83424118  0.84744580  0.75306971  1
  H  H222  1  0.86337253  0.58743583  0.97255764  1
  O  O223  1  0.55542774  0.76481889  0.84396424  1
