# generated using pymatgen
data_CuH8C16(NO2)2
_symmetry_space_group_name_H-M   'P 1'
_cell_length_a   25.01852718
_cell_length_b   21.83537648
_cell_length_c   16.56809687
_cell_angle_alpha   90.00000000
_cell_angle_beta   90.00000000
_cell_angle_gamma   90.00000000
_symmetry_Int_Tables_number   1
_chemical_formula_structural   CuH8C16(NO2)2
_chemical_formula_sum   'Cu24 H192 C384 N48 O96'
_cell_volume   9050.96841081
_cell_formula_units_Z   24
loop_
 _symmetry_equiv_pos_site_id
 _symmetry_equiv_pos_as_xyz
  1  'x, y, z'
loop_
 _atom_site_type_symbol
 _atom_site_label
 _atom_site_symmetry_multiplicity
 _atom_site_fract_x
 _atom_site_fract_y
 _atom_site_fract_z
 _atom_site_occupancy
  C  C0  1  0.00835315  0.01847808  0.15033288  1
  C  C1  1  0.07254579  0.22574671  0.27522623  1
  H  H2  1  0.12635237  0.06995875  0.30657491  1
  C  C3  1  0.01775738  0.28753173  0.04984981  1
  C  C4  1  0.03689817  0.45795278  0.20112768  1
  O  O5  1  0.17509077  0.09294675  0.18869329  1
  C  C6  1  0.10572362  0.17804447  0.25323326  1
  C  C7  1  0.16016984  0.30641900  0.07054699  1
  C  C8  1  0.14151255  0.26034588  0.36264365  1
  N  N9  1  0.02082562  0.32600195  0.38793464  1
  H  H10  1  0.03179403  0.23180434  0.25325418  1
  H  H11  1  0.06145908  0.37876347  0.13622995  1
  O  O12  1  0.08976525  0.04367470  0.08640827  1
  H  H13  1  0.22175739  0.24064560  0.23639747  1
  C  C14  1  0.10544587  0.04967862  0.36063156  1
  C  C15  1  0.17827775  0.21397392  0.34344521  1
  C  C16  1  0.15842190  0.17412662  0.28142572  1
  C  C17  1  0.05359665  0.42814826  0.13008049  1
  C  C18  1  0.04398679  0.07458461  0.46656078  1
  C  C19  1  0.16439279  0.27861494  0.15007844  1
  C  C20  1  0.09066320  0.27084054  0.32985519  1
  H  H21  1  0.07003474  0.44099454  0.00340268  1
  H  H22  1  0.15602347  0.29404441  0.40860013  1
  C  C23  1  0.06941021  0.09065192  0.39381955  1
  H  H24  1  0.05928484  0.13258109  0.35784081  1
  H  H25  1  0.12846112  0.27217886  0.18842184  1
  H  H26  1  0.21752162  0.21062137  0.37140137  1
  C  C27  1  0.19250852  0.12922427  0.24419835  1
  O  O28  1  0.13967007  0.17794736  0.01990586  1
  N  N29  1  0.06443543  0.29156882  0.08312598  1
  C  C30  1  0.02579303  0.41248567  0.27027688  1
  H  H31  1  0.08763437  0.14158300  0.21235677  1
  N  N32  1  0.06549954  0.37469071  0.27642058  1
  C  C33  1  0.10547065  0.30921160  0.03377358  1
  Cu  Cu34  1  0.17037358  0.11389700  0.07832377  1
  C  C35  1  0.05669839  0.33117344  0.33299026  1
  O  O36  1  0.19168236  0.42733820  0.21785477  1
  C  C37  1  0.03927410  0.03711887  0.07963300  1
  C  C38  1  0.21606981  0.26493516  0.17823790  1
  C  C39  1  0.19216277  0.44446078  0.15061909  1
  O  O40  1  0.23951248  0.11973330  0.03183168  1
  C  C41  1  0.05611314  0.46248973  0.06078847  1
  O  O42  1  0.24120674  0.12609804  0.26659106  1
  H  H43  1  0.24567175  0.00194113  0.17718046  1
  O  O44  1  0.01968687  0.04765435  0.01097556  1
  C  C45  1  0.20579248  0.32888558  0.02771740  1
  C  C46  1  0.03547283  0.00860907  0.22445542  1
  O  O47  1  0.19371146  0.45899078  0.08245990  1
  H  H48  1  0.07944746  0.01436976  0.22920534  1
  C  C49  1  0.21486356  0.37345987  0.49315730  1
  H  H50  1  0.22925328  0.22442525  0.00086495  1
  O  O51  1  0.20666534  0.40993071  0.81009065  1
  O  O52  1  0.08899983  0.16284223  0.91542919  1
  C  C53  1  0.22431796  0.22247270  0.93322766  1
  C  C54  1  0.00251948  0.35071487  0.81453647  1
  C  C55  1  0.19443566  0.31584538  0.53266895  1
  C  C56  1  0.13258207  0.17960104  0.94418543  1
  H  H57  1  0.08222602  0.28468961  0.64102877  1
  O  O58  1  0.12448339  0.11153298  0.63541755  1
  C  C59  1  0.09700299  0.40288935  0.74065943  1
  H  H60  1  0.13077341  0.19312287  0.78553662  1
  H  H61  1  0.14046499  0.36863576  0.84907402  1
  C  C62  1  0.05470752  0.32672308  0.93840207  1
  C  C63  1  0.18638426  0.20536874  0.55309505  1
  Cu  Cu64  1  0.05144295  0.09245463  0.93319211  1
  O  O65  1  0.06792142  0.18277787  0.68259412  1
  Cu  Cu66  1  0.12927773  0.03846628  0.99109924  1
  C  C67  1  0.05409621  0.35111974  0.85116625  1
  C  C68  1  0.10107281  0.37421118  0.81552445  1
  C  C69  1  0.00126148  0.37418675  0.73609789  1
  C  C70  1  0.17051812  0.20258199  0.81017603  1
  O  O71  1  0.20965939  0.04707889  0.68397343  1
  N  N72  1  0.10582720  0.32624846  0.95786376  1
  C  C73  1  0.21568921  0.25366618  0.52476459  1
  C  C74  1  0.13775211  0.21527001  0.60092465  1
  H  H75  1  0.19763508  0.15781321  0.54385993  1
  C  C76  1  0.11915320  0.27593571  0.60806013  1
  C  C77  1  0.04658109  0.40345305  0.70406255  1
  C  C78  1  0.14581234  0.32316618  0.57142090  1
  N  N79  1  0.19554329  0.42698080  0.52055884  1
  C  C80  1  0.21304582  0.21530905  0.76100274  1
  C  C81  1  0.17704158  0.20066074  0.89431654  1
  O  O82  1  0.06046861  0.04214455  0.72818693  1
  N  N83  1  0.01020377  0.30752870  0.97536390  1
  H  H84  1  0.21133604  0.21646288  0.69433791  1
  O  O85  1  0.08924919  0.45119607  0.59370200  1
  C  C86  1  0.10841411  0.16748467  0.64006792  1
  C  C87  1  0.22010078  0.02661873  0.61003737  1
  O  O88  1  0.22863901  0.06134469  0.55655743  1
  Cu  Cu89  1  0.13505945  0.04411961  0.71016317  1
  C  C90  1  0.04097414  0.42988529  0.62002004  1
  H  H91  1  0.12615118  0.37149583  0.56903780  1
  H  H92  1  0.19880699  0.35361031  0.97203338  1
  C  C93  1  0.22312504  0.47721266  0.50102449  1
  H  H94  1  0.13283280  0.41979815  0.71289820  1
  C  C95  1  0.02541864  0.03545128  0.78525356  1
  O  O96  1  0.00209617  0.43583121  0.58191883  1
  C  C97  1  0.22944592  0.45929652  0.79955055  1
  O  O98  1  0.01437277  0.07892599  0.83278209  1
  O  O99  1  0.17109809  0.02275518  0.89981364  1
  Cu  Cu100  1  0.00209921  0.14524199  0.67455275  1
  H  H101  1  0.03710680  0.00758534  0.56037330  1
  C  C102  1  0.05534369  0.01753382  0.50154787  1
  C  C103  1  0.00727572  0.11682066  0.51049475  1
  Cu  Cu104  1  0.08968295  0.49258498  0.50115412  1
  C  C105  1  0.20660763  0.90327597  0.25545215  1
  C  C106  1  0.16483781  0.65757768  0.18146106  1
  N  N107  1  0.20984255  0.62679788  0.05609999  1
  H  H108  1  0.12359882  0.52607116  0.28139236  1
  C  C109  1  0.19197555  0.59080620  0.48676206  1
  O  O110  1  0.02467916  0.79764942  0.02718189  1
  H  H111  1  0.20362158  0.96361510  0.47308548  1
  C  C112  1  0.11237815  0.98998014  0.38909819  1
  N  N113  1  0.13195751  0.88683834  0.37724010  1
  O  O114  1  0.08100853  0.53717538  0.40563060  1
  C  C115  1  0.02277686  0.52115462  0.19845639  1
  O  O116  1  0.07447849  0.63039623  0.45014673  1
  H  H117  1  0.12013633  0.71531338  0.35436141  1
  C  C118  1  0.02544759  0.76482540  0.16527350  1
  C  C119  1  0.12125508  0.61982820  0.32819652  1
  C  C120  1  0.02030468  0.55072156  0.12267247  1
  C  C121  1  0.08708513  0.97457579  0.46251694  1
  C  C122  1  0.18439222  0.84940426  0.00138105  1
  H  H123  1  0.18565850  0.58468628  0.42216817  1
  N  N124  1  0.18200733  0.95060432  0.28794657  1
  C  C125  1  0.15614161  0.70268506  0.24029269  1
  H  H126  1  0.16288054  0.56196410  0.14872146  1
  C  C127  1  0.03364990  0.75909649  0.07666197  1
  C  C128  1  0.01862057  0.78626661  0.33170679  1
  C  C129  1  0.15225447  0.59436102  0.19472300  1
  C  C130  1  0.14715567  0.94034741  0.34713706  1
  N  N131  1  0.04365687  0.77514430  0.47697100  1
  N  N132  1  0.19388953  0.84462413  0.27845835  1
  C  C133  1  0.15968273  0.85316316  0.33006164  1
  H  H134  1  0.18835361  0.84239111  0.07146889  1
  C  C135  1  0.13294447  0.57543690  0.26844552  1
  C  C136  1  0.13265285  0.68148080  0.31222143  1
  H  H137  1  0.04009631  0.68454429  0.33684777  1
  N  N138  1  0.17397378  0.72644639  0.06661956  1
  H  H139  1  0.16567519  0.75426582  0.23437015  1
  H  H140  1  0.05837564  0.67244915  0.19619838  1
  C  C141  1  0.03222141  0.72618856  0.30155149  1
  C  C142  1  0.18377953  0.67229558  0.09453688  1
  C  C143  1  0.08974523  0.59647560  0.39873709  1
  C  C144  1  0.00694953  0.83301417  0.27528756  1
  H  H145  1  0.19804144  0.85013731  0.46037487  1
  H  H146  1  0.18267987  0.68897525  0.48469463  1
  H  H147  1  0.00339800  0.59698045  0.11775654  1
  C  C148  1  0.04163561  0.71635354  0.21877723  1
  C  C149  1  0.04352803  0.52478698  0.05297993  1
  O  O150  1  0.04983977  0.70382039  0.05472555  1
  C  C151  1  0.24518025  0.90370324  0.18534966  1
  H  H152  1  0.18822262  0.94770457  0.00213788  1
  C  C153  1  0.01788005  0.80498102  0.41893514  1
  C  C154  1  0.01059167  0.82375376  0.19205185  1
  H  H155  1  0.23874303  0.56357979  0.33799486  1
  H  H156  1  0.00913351  0.54510141  0.25538730  1
  C  C157  1  0.00477424  0.98837765  0.28950669  1
  H  H158  1  0.02197917  0.97788597  0.35331764  1
  H  H159  1  0.08875659  0.92741219  0.48412904  1
  H  H160  1  0.07317509  0.82955236  0.70025335  1
  Cu  Cu161  1  0.08128210  0.68034349  0.96353644  1
  Cu  Cu162  1  0.03873590  0.53537002  0.81648610  1
  C  C163  1  0.20330530  0.60507824  0.65785704  1
  C  C164  1  0.17133897  0.91183521  0.88496139  1
  C  C165  1  0.20275401  0.53990949  0.53785776  1
  C  C166  1  0.16608442  0.97484333  0.85436783  1
  C  C167  1  0.20786839  0.93204591  0.52496036  1
  C  C168  1  0.08701922  0.74274043  0.75461316  1
  O  O169  1  0.09924823  0.58251555  0.78486640  1
  C  C170  1  0.21430255  0.95813227  0.60338346  1
  C  C171  1  0.07551325  0.78007737  0.68906512  1
  C  C172  1  0.20580472  0.85587357  0.65709074  1
  H  H173  1  0.20345234  0.61378586  0.72469014  1
  O  O174  1  0.11504854  0.66022714  0.86887934  1
  H  H175  1  0.21776777  0.93756120  0.73017885  1
  H  H176  1  0.04531245  0.67098757  0.54158904  1
  C  C177  1  0.18981943  0.64854940  0.51947534  1
  C  C178  1  0.18082023  0.90723612  0.96771980  1
  C  C179  1  0.19698945  0.65501831  0.60457248  1
  C  C180  1  0.19852300  0.72089410  0.63383307  1
  H  H181  1  0.18220186  0.76149820  0.83761407  1
  C  C182  1  0.04917246  0.55582737  0.97455623  1
  O  O183  1  0.20142669  0.73557915  0.70246641  1
  C  C184  1  0.16944406  0.86040451  0.83635403  1
  C  C185  1  0.10025118  0.63814553  0.80252009  1
  H  H186  1  0.21350950  0.50385541  0.65701252  1
  C  C187  1  0.18594439  0.79666492  0.95545919  1
  C  C188  1  0.20418386  0.54593022  0.62237858  1
  C  C189  1  0.07996447  0.65177598  0.66111672  1
  C  C190  1  0.08648426  0.68014782  0.73794012  1
  C  C191  1  0.21292016  0.91863949  0.66895145  1
  H  H192  1  0.20241813  0.82701789  0.71414078  1
  H  H193  1  0.09647437  0.76078016  0.81422846  1
  C  C194  1  0.06653084  0.68882151  0.59577956  1
  C  C195  1  0.18176009  0.80481711  0.87139993  1
  N  N196  1  0.22440805  0.69176856  0.94936022  1
  O  O197  1  0.06267024  0.52375210  0.91479906  1
  O  O198  1  0.03523100  0.61030175  0.96179175  1
  H  H199  1  0.07999569  0.60188652  0.65485153  1
  H  H200  1  0.15994735  0.86819429  0.77171097  1
  C  C201  1  0.06358673  0.75451714  0.61185170  1
  C  C202  1  0.20081857  0.82567689  0.58225211  1
  C  C203  1  0.03825980  0.79677202  0.55332284  1
  O  O204  1  0.14547528  0.97910611  0.78749201  1
  O  O205  1  0.19457118  0.76734329  0.56836262  1
  H  H206  1  0.04421153  0.93367380  0.69229524  1
  C  C207  1  0.19544779  0.73160877  0.99406587  1
  C  C208  1  0.20403841  0.86989650  0.51812848  1
  C  C209  1  0.23445056  0.63843606  0.98714103  1
  O  O210  1  0.21154033  0.50579458  0.83203126  1
  N  N211  1  0.01304030  0.84669608  0.57165697  1
  C  C212  1  0.01147939  0.92709341  0.74044190  1
  O  O213  1  0.44470035  0.41825009  0.12645970  1
  H  H214  1  0.34743095  0.38839260  0.16240196  1
  C  C215  1  0.35993924  0.18827670  0.40514642  1
  O  O216  1  0.35457261  0.10401445  0.27039372  1
  C  C217  1  0.36062195  0.22703934  0.47083753  1
  H  H218  1  0.47962829  0.20754334  0.48675937  1
  C  C219  1  0.27116707  0.43121366  0.41612862  1
  C  C220  1  0.46327582  0.34693735  0.34950364  1
  H  H221  1  0.29237287  0.33134237  0.02265760  1
  Cu  Cu222  1  0.30390733  0.14519583  0.20183264  1
  O  O223  1  0.33124379  0.03101584  0.35586294  1
  C  C224  1  0.44432751  0.44765467  0.19379835  1
  C  C225  1  0.34404834  0.12632879  0.41274499  1
  C  C226  1  0.34281778  0.08297382  0.34339860  1
  C  C227  1  0.36534272  0.46384827  0.38164671  1
  O  O228  1  0.30854639  0.22685015  0.23089684  1
  N  N229  1  0.48220437  0.45760656  0.45074876  1
  C  C230  1  0.45473856  0.41410536  0.48090282  1
  C  C231  1  0.40408128  0.46962996  0.32173419  1
  Cu  Cu232  1  0.48672948  0.44681584  0.04070213  1
  H  H233  1  0.25827983  0.25183264  0.49882618  1
  H  H234  1  0.38565855  0.06313504  0.08467114  1
  H  H235  1  0.42470941  0.04185596  0.20011472  1
  C  C236  1  0.35097107  0.40925493  0.22202877  1
  C  C237  1  0.39736062  0.44176878  0.24540447  1
  C  C238  1  0.31806958  0.43512032  0.35617576  1
  C  C239  1  0.25909922  0.28310926  0.12859711  1
  C  C240  1  0.31054597  0.40948754  0.27904253  1
  N  N241  1  0.25368772  0.37495569  0.43916653  1
  H  H242  1  0.37466131  0.20867391  0.34797527  1
  C  C243  1  0.30922607  0.26204543  0.16857883  1
  C  C244  1  0.25668912  0.31613121  0.05643123  1
  H  H245  1  0.37165197  0.48164345  0.44375056  1
  H  H246  1  0.46695760  0.39040538  0.31768868  1
  O  O247  1  0.29407704  0.08719531  0.12788518  1
  O  O248  1  0.35056584  0.27621074  0.13541689  1
  C  C249  1  0.47122609  0.24441234  0.44658157  1
  C  C250  1  0.28403414  0.09960459  0.05461384  1
  C  C251  1  0.47646500  0.29195411  0.31234860  1
  C  C252  1  0.45524313  0.35171812  0.43351757  1
  O  O253  1  0.49245794  0.07440098  0.11329961  1
  H  H254  1  0.48508517  0.29150163  0.24761516  1
  C  C255  1  0.45815885  0.29985626  0.48261444  1
  C  C256  1  0.47740878  0.23967620  0.36130297  1
  H  H257  1  0.37402076  0.27464271  0.46552964  1
  H  H258  1  0.34294416  0.45966855  0.00667447  1
  C  C259  1  0.48890748  0.17720016  0.33192507  1
  H  H260  1  0.27151832  0.38872883  0.26157247  1
  C  C261  1  0.37771022  0.07527568  0.02094333  1
  O  O262  1  0.49959395  0.16863152  0.26077156  1
  N  N263  1  0.26022312  0.48574679  0.44603962  1
  N  N264  1  0.49372668  0.04166435  0.44282934  1
  H  H265  1  0.31725788  0.05295286  0.48552923  1
  C  C266  1  0.32805666  0.10002268  0.48619463  1
  C  C267  1  0.49284189  0.01864230  0.08139760  1
  O  O268  1  0.49573784  0.13700099  0.38816887  1
  H  H269  1  0.30805107  0.00232794  0.05296778  1
  O  O270  1  0.48578188  0.47305013  0.21862757  1
  N  N271  1  0.39202813  0.26297550  0.64925600  1
  C  C272  1  0.44119905  0.30570715  0.76794125  1
  H  H273  1  0.42655427  0.24877663  0.87553597  1
  C  C274  1  0.40704808  0.10077481  0.88042661  1
  H  H275  1  0.30667912  0.25029184  0.90672051  1
  H  H276  1  0.32227671  0.12573969  0.61667607  1
  C  C277  1  0.28088140  0.45993505  0.74681731  1
  O  O278  1  0.43920686  0.46484241  0.95545905  1
  C  C279  1  0.44921224  0.28850517  0.85099454  1
  H  H280  1  0.46090694  0.07568256  0.97463970  1
  C  C281  1  0.37033240  0.46073047  0.64282379  1
  H  H282  1  0.36349459  0.36143827  0.64068680  1
  H  H283  1  0.34805304  0.13918519  0.79550534  1
  C  C284  1  0.34565643  0.23940427  0.62747360  1
  C  C285  1  0.33226866  0.13941686  0.55363236  1
  H  H286  1  0.27927952  0.36241698  0.73071182  1
  C  C287  1  0.45590047  0.11028854  0.82415491  1
  N  N288  1  0.44326798  0.13367899  0.75125897  1
  C  C289  1  0.47707038  0.35006539  0.72793374  1
  C  C290  1  0.32678908  0.09414098  0.99440218  1
  C  C291  1  0.30956548  0.24859690  0.73953696  1
  C  C292  1  0.41127332  0.46168774  0.57602193  1
  C  C293  1  0.34529044  0.40389472  0.66182100  1
  C  C294  1  0.48946295  0.14679685  0.72850202  1
  N  N295  1  0.35072371  0.27317803  0.77309486  1
  C  C296  1  0.48674034  0.32079740  0.89615427  1
  H  H297  1  0.47546132  0.02789259  0.71925172  1
  C  C298  1  0.34755230  0.20027738  0.54484978  1
  H  H299  1  0.47315725  0.36278637  0.66188593  1
  C  C300  1  0.39499839  0.27984877  0.72579150  1
  H  H301  1  0.27356051  0.12384233  0.89909487  1
  N  N302  1  0.30021818  0.23289095  0.66375199  1
  C  C303  1  0.41662415  0.08010391  0.95987948  1
  C  C304  1  0.30007065  0.40545390  0.71162609  1
  N  N305  1  0.41951422  0.40856559  0.53946666  1
  C  C306  1  0.31513023  0.11367557  0.91324764  1
  C  C307  1  0.35458324  0.11689962  0.85372552  1
  H  H308  1  0.45341599  0.29988624  0.54970274  1
  C  C309  1  0.26732290  0.23874819  0.88153827  1
  H  H310  1  0.48719128  0.05377597  0.56957694  1
  C  C311  1  0.48171848  0.00707032  0.59339327  1
  C  C312  1  0.26122670  0.23385222  0.79820586  1
  H  H313  1  0.49158545  0.31140907  0.96208557  1
  C  C314  1  0.44904265  0.91209517  0.09210820  1
  H  H315  1  0.36175337  0.70275376  0.15960789  1
  C  C316  1  0.39094565  0.61071275  0.40259762  1
  C  C317  1  0.33534519  0.67238361  0.19897935  1
  C  C318  1  0.26479852  0.84578212  0.15471423  1
  H  H319  1  0.30229143  0.80063382  0.06212685  1
  C  C320  1  0.41117717  0.65890457  0.45383263  1
  H  H321  1  0.35048173  0.94108785  0.45762216  1
  H  H322  1  0.36511098  0.97055602  0.27716324  1
  C  C323  1  0.31715211  0.69039287  0.27529074  1
  C  C324  1  0.42204246  0.86945001  0.14209393  1
  C  C325  1  0.32304495  0.61625826  0.16280840  1
  C  C326  1  0.29500016  0.84780929  0.08554576  1
  H  H327  1  0.33066556  0.60133407  0.10129966  1
  C  C328  1  0.29380112  0.96072815  0.08294554  1
  C  C329  1  0.38997920  0.95359209  0.22627206  1
  C  C330  1  0.39554153  0.88915094  0.21403553  1
  C  C331  1  0.28658439  0.65071260  0.32631563  1
  C  C332  1  0.33863209  0.81924866  0.39097295  1
  N  N333  1  0.32175306  0.76426892  0.37924450  1
  N  N334  1  0.35965797  0.78683350  0.24735778  1
  C  C335  1  0.45027020  0.70274502  0.42785008  1
  H  H336  1  0.43740645  0.50065850  0.33652583  1
  C  C337  1  0.33607564  0.75307495  0.30330638  1
  C  C338  1  0.37031800  0.84315066  0.27130986  1
  N  N339  1  0.36354993  0.86129394  0.34531523  1
  C  C340  1  0.47786249  0.64402814  0.21994716  1
  C  C341  1  0.30772792  0.90650558  0.04524281  1
  H  H342  1  0.47233418  0.89345011  0.04030620  1
  H  H343  1  0.25204882  0.80173823  0.18582759  1
  H  H344  1  0.46711934  0.73990756  0.46671092  1
  C  C345  1  0.45585503  0.65189841  0.29947802  1
  C  C346  1  0.46964261  0.70292269  0.35069819  1
  H  H347  1  0.40089351  0.57682905  0.28437811  1
  H  H348  1  0.35893695  0.57832404  0.41643873  1
  C  C349  1  0.41485932  0.61040678  0.32585516  1
  C  C350  1  0.45423564  0.97209293  0.11908789  1
  C  C351  1  0.27106799  0.59099142  0.30496993  1
  C  C352  1  0.29233222  0.58057044  0.22363202  1
  H  H353  1  0.27153258  0.66850563  0.38341208  1
  H  H354  1  0.42091279  0.81927741  0.12871137  1
  O  O355  1  0.46716160  0.59496198  0.18113857  1
  H  H356  1  0.25199570  0.51388934  0.03346712  1
  C  C357  1  0.33459915  0.84000096  0.48081599  1
  O  O358  1  0.42651375  0.74174108  0.03368884  1
  C  C359  1  0.42339574  0.99295242  0.18422941  1
  C  C360  1  0.26314793  0.95963696  0.15099387  1
  C  C361  1  0.46938601  0.50677566  0.49478938  1
  H  H362  1  0.49687517  0.74071935  0.32935825  1
  H  H363  1  0.49396049  0.86192300  0.30035324  1
  H  H364  1  0.29604582  0.55845337  0.76675085  1
  O  O365  1  0.44784725  0.85147343  0.78823305  1
  N  N366  1  0.43811942  0.51119412  0.55991857  1
  C  C367  1  0.47704608  0.98960934  0.67386822  1
  C  C368  1  0.38492748  0.72807761  0.88031810  1
  C  C369  1  0.48745179  0.89807033  0.55636059  1
  Cu  Cu370  1  0.39080509  0.83725642  0.85297023  1
  C  C371  1  0.37885339  0.68183786  0.66012072  1
  C  C372  1  0.27613785  0.59244323  0.95994768  1
  C  C373  1  0.33935520  0.87753060  0.64318016  1
  H  H374  1  0.32630905  0.78096846  0.67328546  1
  O  O375  1  0.45819435  0.54523630  0.87919957  1
  C  C376  1  0.33734590  0.90829349  0.96990693  1
  C  C377  1  0.45910187  0.73676651  0.98136360  1
  Cu  Cu378  1  0.37150185  0.98205002  0.83644764  1
  C  C379  1  0.32538252  0.79686513  0.54384995  1
  C  C380  1  0.33946242  0.89637891  0.72625705  1
  C  C381  1  0.47530541  0.72316548  0.83146525  1
  H  H382  1  0.31979963  0.72688439  0.79060337  1
  N  N383  1  0.40917578  0.68474811  0.59446055  1
  H  H384  1  0.32196931  0.74587295  0.53406882  1
  C  C385  1  0.31842116  0.64312144  0.60225523  1
  C  C386  1  0.40027638  0.70421769  0.74062549  1
  H  H387  1  0.37415819  0.56053925  0.67255541  1
  O  O388  1  0.34069917  0.95154428  0.74875738  1
  C  C389  1  0.45964475  0.90743776  0.77758360  1
  C  C390  1  0.47556983  0.87960368  0.63593847  1
  O  O391  1  0.34965693  0.85818104  0.93827680  1
  N  N392  1  0.32768899  0.66402970  0.67078892  1
  C  C393  1  0.36298802  0.71961203  0.80484023  1
  O  O394  1  0.33431250  0.85310437  0.77945421  1
  C  C395  1  0.37086495  0.53623598  0.93685308  1
  O  O396  1  0.44390013  0.94877293  0.82380487  1
  H  H397  1  0.35709901  0.96818655  0.59471959  1
  C  C398  1  0.33293185  0.50534776  0.98239958  1
  C  C399  1  0.34922525  0.92076464  0.58167578  1
  C  C400  1  0.33010284  0.81470244  0.62338433  1
  H  H401  1  0.35984127  0.73552158  0.93418235  1
  C  C402  1  0.36363102  0.59145385  0.89460595  1
  C  C403  1  0.47176333  0.92587666  0.69370464  1
  C  C404  1  0.44070438  0.73147100  0.89616322  1
  C  C405  1  0.31504228  0.61872113  0.90806615  1
  C  C406  1  0.45562937  0.71031656  0.75383035  1
  O  O407  1  0.34944826  0.96031354  0.93811318  1
  H  H408  1  0.47238280  0.83156733  0.65005396  1
  C  C409  1  0.38343882  0.66062229  0.53412320  1
  H  H410  1  0.39648994  0.60976512  0.85445822  1
  H  H411  1  0.30805560  0.66807512  0.88813703  1
  C  C412  1  0.49283010  0.96090605  0.53502603  1
  C  C413  1  0.42495060  0.51337191  0.92059995  1
  H  H414  1  0.48192574  0.60277092  0.59926882  1
  N  N415  1  0.33135804  0.63611210  0.53264670  1
  H  H416  1  0.48146103  0.70048821  0.70112065  1
  C  C417  1  0.35505436  0.51500547  0.68462483  1
  C  C418  1  0.31001029  0.51481701  0.73524531  1
  C  C419  1  0.28246566  0.53232956  0.99357030  1
  C  C420  1  0.34910364  0.90107008  0.50077997  1
  H  H421  1  0.49380862  0.86486172  0.50805663  1
  C  C422  1  0.58977976  0.29592866  0.32131761  1
  C  C423  1  0.69872004  0.49800183  0.09366541  1
  H  H424  1  0.58128256  0.19390455  0.33828758  1
  C  C425  1  0.50846901  0.06107879  0.37335486  1
  N  N426  1  0.61431476  0.42277764  0.37014313  1
  H  H427  1  0.69304567  0.32742623  0.39631574  1
  H  H428  1  0.67543441  0.24475830  0.12952151  1
  H  H429  1  0.65332248  0.04867685  0.47646891  1
  C  C430  1  0.74246796  0.23850447  0.30579671  1
  C  C431  1  0.61774695  0.33807481  0.27221050  1
  O  O432  1  0.66744066  0.13763064  0.15214845  1
  C  C433  1  0.62523064  0.21656034  0.23096940  1
  Cu  Cu434  1  0.53777082  0.09643425  0.20023040  1
  Cu  Cu435  1  0.71745081  0.07057336  0.16926677  1
  C  C436  1  0.65035647  0.31938185  0.20661886  1
  H  H437  1  0.67410937  0.35461299  0.17245997  1
  C  C438  1  0.62335327  0.48099191  0.38165450  1
  C  C439  1  0.65196283  0.25978533  0.18177342  1
  C  C440  1  0.73290616  0.40866150  0.35187308  1
  O  O441  1  0.60275211  0.11418082  0.23802550  1
  C  C442  1  0.63554705  0.15358546  0.20717530  1
  C  C443  1  0.59626071  0.23294328  0.29923219  1
  Cu  Cu444  1  0.70786494  0.21712238  0.48167993  1
  H  H445  1  0.64092116  0.05096500  0.02774212  1
  H  H446  1  0.57008156  0.31243846  0.37529381  1
  C  C447  1  0.61706920  0.40729174  0.29273918  1
  N  N448  1  0.62517451  0.44127059  0.22398155  1
  C  C449  1  0.72326091  0.34476945  0.35291388  1
  N  N450  1  0.52400289  0.03933433  0.30346950  1
  O  O451  1  0.70885533  0.22170006  0.35856743  1
  H  H452  1  0.70865284  0.43941323  0.38635595  1
  C  C453  1  0.63239060  0.49037683  0.25902079  1
  O  O454  1  0.52035881  0.00372255  0.02803221  1
  O  O455  1  0.74114179  0.07090931  0.06390074  1
  C  C456  1  0.72857443  0.48573574  0.02262487  1
  H  H457  1  0.71766569  0.48511826  0.14921139  1
  C  C458  1  0.73629194  0.11078573  0.00739966  1
  H  H459  1  0.56353840  0.42877255  0.49710157  1
  C  C460  1  0.59865764  0.11013545  0.84808617  1
  H  H461  1  0.69706493  0.07174722  0.72918952  1
  H  H462  1  0.54303119  0.41525034  0.75138637  1
  C  C463  1  0.64375470  0.07521493  0.96999836  1
  H  H464  1  0.55936398  0.05840098  0.94116481  1
  N  N465  1  0.53927222  0.14681196  0.73647388  1
  C  C466  1  0.54279614  0.11791286  0.80773911  1
  C  C467  1  0.68765680  0.14717295  0.87647703  1
  C  C468  1  0.68828408  0.11189131  0.94642788  1
  C  C469  1  0.54826406  0.40613703  0.91632673  1
  C  C470  1  0.64432167  0.03965994  0.54041994  1
  C  C471  1  0.64260773  0.14684639  0.82535149  1
  C  C472  1  0.57785274  0.48844658  0.59875762  1
  C  C473  1  0.71885957  0.43990092  0.63250933  1
  C  C474  1  0.51702340  0.36828610  0.86069125  1
  O  O475  1  0.57191264  0.45303373  0.88661867  1
  H  H476  1  0.63970303  0.17399113  0.76945395  1
  C  C477  1  0.70269178  0.41768494  0.55506507  1
  C  C478  1  0.59813272  0.07842296  0.92275483  1
  C  C479  1  0.70792679  0.11861804  0.58336480  1
  H  H480  1  0.72111706  0.17812339  0.86001991  1
  O  O481  1  0.73427594  0.14340274  0.63909969  1
  H  H482  1  0.54854746  0.46529821  0.63675707  1
  C  C483  1  0.67091901  0.04784640  0.68776084  1
  O  O484  1  0.62510517  0.29999426  0.62153220  1
  H  H485  1  0.69411520  0.44503321  0.68744942  1
  C  C486  1  0.51639468  0.37783051  0.77595735  1
  C  C487  1  0.63096779  0.00785757  0.71497210  1
  C  C488  1  0.61707182  0.26838570  0.56710882  1
  H  H489  1  0.72856103  0.49597387  0.89078033  1
  C  C490  1  0.67426346  0.06510625  0.60422879  1
  H  H491  1  0.66128498  0.40636799  0.53073356  1
  O  O492  1  0.54089302  0.40463188  0.99140181  1
  N  N493  1  0.50320190  0.09698946  0.85515914  1
  C  C494  1  0.58571737  0.46842061  0.52093493  1
  C  C495  1  0.74757812  0.42058474  0.50649307  1
  O  O496  1  0.71183192  0.13280716  0.51110914  1
  O  O497  1  0.60916858  0.24084305  0.50731070  1
  C  C498  1  0.54367804  0.82808120  0.20151232  1
  H  H499  1  0.64153632  0.84960504  0.49935510  1
  C  C500  1  0.58800338  0.84217710  0.15252548  1
  C  C501  1  0.60901743  0.90342768  0.14679575  1
  C  C502  1  0.50064858  0.56619061  0.47727221  1
  C  C503  1  0.56304422  0.61748706  0.38407332  1
  H  H504  1  0.52206031  0.52960343  0.36324343  1
  O  O505  1  0.51077088  0.68324627  0.19165592  1
  H  H506  1  0.59217749  0.61682572  0.33639274  1
  H  H507  1  0.62597259  0.53859062  0.14548473  1
  N  N508  1  0.63420814  0.52194906  0.32263162  1
  O  O509  1  0.64988847  0.81285935  0.05478982  1
  H  H510  1  0.64253904  0.91365876  0.10465397  1
  C  C511  1  0.54845859  0.93175401  0.25307775  1
  O  O512  1  0.55009420  0.58586968  0.07366999  1
  C  C513  1  0.64945066  0.52706340  0.09256735  1
  O  O514  1  0.60055050  0.74043298  0.11538578  1
  H  H515  1  0.67685548  0.57960040  0.45645841  1
  Cu  Cu516  1  0.51572842  0.53033281  0.14620168  1
  C  C517  1  0.52864267  0.97899225  0.31466410  1
  Cu  Cu518  1  0.54077192  0.69554674  0.08718379  1
  C  C519  1  0.58676726  0.94774744  0.19513899  1
  C  C520  1  0.61364860  0.79469618  0.10656089  1
  H  H521  1  0.53526371  0.77922732  0.20506694  1
  C  C522  1  0.52732521  0.56868418  0.40333535  1
  C  C523  1  0.52462516  0.87168898  0.25404609  1
  C  C524  1  0.62890418  0.54204810  0.01653944  1
  N  N525  1  0.52073418  0.94859740  0.38412227  1
  C  C526  1  0.56120613  0.66180923  0.45250491  1
  C  C527  1  0.74400977  0.68149609  0.01533588  1
  H  H528  1  0.73140673  0.76491396  0.07970082  1
  C  C529  1  0.57393671  0.56950041  0.01075821  1
  C  C530  1  0.74238701  0.71741813  0.08593515  1
  C  C531  1  0.50264699  0.98093064  0.44473979  1
  C  C532  1  0.62042843  0.50332445  0.47037248  1
  H  H533  1  0.60203169  0.99535152  0.19383203  1
  C  C534  1  0.65222124  0.55308559  0.49862243  1
  C  C535  1  0.63378054  0.83603510  0.63582911  1
  H  H536  1  0.66790354  0.70358113  0.73496041  1
  O  O537  1  0.73546915  0.67931434  0.87610411  1
  C  C538  1  0.60453662  0.98702182  0.64483090  1
  O  O539  1  0.62657501  0.76997885  0.83898270  1
  C  C540  1  0.62400273  0.81114167  0.78112126  1
  O  O541  1  0.55322290  0.57732895  0.94334884  1
  O  O542  1  0.60768934  0.86094769  0.79418272  1
  Cu  Cu543  1  0.63862816  0.78704204  0.94614688  1
  C  C544  1  0.66511127  0.73422512  0.68721817  1
  C  C545  1  0.64249612  0.79310939  0.69525380  1
  C  C546  1  0.50426174  0.60927141  0.54187368  1
  H  H547  1  0.64355054  0.54915805  0.88754874  1
  H  H548  1  0.61317717  0.87769191  0.65675174  1
  O  O549  1  0.51109331  0.73033162  0.99577806  1
  H  H550  1  0.66167524  0.61072303  0.60334777  1
  O  O551  1  0.62469027  0.58992296  0.74768188  1
  C  C552  1  0.64488862  0.56873248  0.58035624  1
  O  O553  1  0.70967208  0.76457794  0.93846440  1
  C  C554  1  0.65015648  0.82141452  0.55440369  1
  H  H555  1  0.55122417  0.69073955  0.58428856  1
  C  C556  1  0.68449357  0.71818113  0.60926823  1
  H  H557  1  0.70127186  0.67337707  0.59502160  1
  C  C558  1  0.59887760  0.54972691  0.71713774  1
  C  C559  1  0.65911731  0.53389729  0.94470859  1
  C  C560  1  0.67367046  0.76487463  0.55720502  1
  C  C561  1  0.53848145  0.66121054  0.53451809  1
  Cu  Cu562  1  0.53035376  0.53037284  0.85121342  1
  C  C563  1  0.60858611  0.53596414  0.62873287  1
  C  C564  1  0.73039016  0.70912067  0.93468738  1
  H  H565  1  0.51966899  0.72891670  0.84510750  1
  O  O566  1  0.55855977  0.52139014  0.75227166  1
  H  H567  1  0.57933167  0.96580851  0.51956772  1
  C  C568  1  0.70715727  0.50385342  0.94784053  1
  C  C569  1  0.60473633  0.99421184  0.56136293  1
  H  H570  1  0.63043167  0.99215803  0.78005793  1
  O  O571  1  0.76640126  0.20271126  0.25987996  1
  O  O572  1  0.77690829  0.03657364  0.30571583  1
  H  H573  1  0.93897046  0.27660232  0.30503038  1
  H  H574  1  0.88369991  0.38173769  0.32494887  1
  O  O575  1  0.88737063  0.19428705  0.35629074  1
  N  N576  1  0.87384870  0.38656138  0.02742610  1
  H  H577  1  0.83233768  0.43304033  0.46018943  1
  C  C578  1  0.90990588  0.20266629  0.21870676  1
  H  H579  1  0.94197526  0.18784073  0.02492550  1
  C  C580  1  0.90636077  0.18318460  0.13818148  1
  C  C581  1  0.93845108  0.21165294  0.08165365  1
  C  C582  1  0.97504541  0.25856259  0.10183469  1
  C  C583  1  0.88143990  0.17117291  0.28552208  1
  C  C584  1  0.88197721  0.36261885  0.38644305  1
  C  C585  1  0.78295602  0.45177541  0.01525882  1
  O  O586  1  0.85176360  0.12849756  0.27300148  1
  H  H587  1  0.81197356  0.29910475  0.21151521  1
  Cu  Cu588  1  0.91984172  0.17377333  0.45972850  1
  C  C589  1  0.80153231  0.39214957  0.24542372  1
  C  C590  1  0.75225347  0.30532520  0.30192102  1
  H  H591  1  0.88285408  0.14444950  0.11975794  1
  O  O592  1  0.75584978  0.27704563  0.48766617  1
  H  H593  1  0.80030282  0.33293929  0.38810446  1
  C  C594  1  0.90345489  0.01200082  0.46322529  1
  C  C595  1  0.85058724  0.42752222  0.06657853  1
  O  O596  1  0.99019228  0.16393654  0.47243466  1
  C  C597  1  0.93349169  0.35790952  0.42203789  1
  H  H598  1  0.89672489  0.03852858  0.40670799  1
  C  C599  1  0.94034239  0.25466261  0.24263543  1
  H  H600  1  0.83766779  0.40710403  0.21591017  1
  C  C601  1  0.83847904  0.33731871  0.42142437  1
  H  H602  1  0.93946085  0.02913045  0.07471283  1
  N  N603  1  0.81218663  0.46248209  0.08130371  1
  Cu  Cu604  1  0.77360246  0.11840495  0.28114784  1
  C  C605  1  0.77057182  0.43107449  0.29701347  1
  C  C606  1  0.78941986  0.32881956  0.24755400  1
  C  C607  1  0.95294866  0.01185108  0.13374988  1
  C  C608  1  0.97152103  0.28302606  0.18247331  1
  O  O609  1  0.85784467  0.12573322  0.49883038  1
  N  N610  1  0.98330535  0.41294135  0.31528314  1
  O  O611  1  0.75842174  0.00522640  0.18604462  1
  H  H612  1  0.99664816  0.32073287  0.20340996  1
  C  C613  1  0.98414127  0.36905216  0.37237104  1
  C  C614  1  0.90891797  0.21147194  0.72264520  1
  O  O615  1  0.83646579  0.48990573  0.73997436  1
  Cu  Cu616  1  0.80842234  0.17699595  0.64039876  1
  C  C617  1  0.85466218  0.08453404  0.55185387  1
  H  H618  1  0.85761020  0.46487854  0.60696191  1
  H  H619  1  0.89656065  0.29847718  0.60654433  1
  C  C620  1  0.84953622  0.30223093  0.75960339  1
  C  C621  1  0.83478229  0.33989749  0.82202722  1
  C  C622  1  0.81724134  0.45088480  0.59018037  1
  C  C623  1  0.79705766  0.28029167  0.53312293  1
  C  C624  1  0.85796295  0.33811796  0.90137142  1
  O  O625  1  0.88330985  0.20314533  0.65845552  1
  C  C626  1  0.89482412  0.29250190  0.92286207  1
  O  O627  1  0.94723528  0.17688119  0.74213239  1
  C  C628  1  0.77246360  0.45510222  0.64149232  1
  O  O629  1  0.79592339  0.25812029  0.60271167  1
  C  C630  1  0.88872679  0.25869998  0.77781494  1
  C  C631  1  0.90681061  0.25250550  0.85952513  1
  O  O632  1  0.75354639  0.47770333  0.77997459  1
  C  C633  1  0.89228030  0.31388984  0.54158134  1
  H  H634  1  0.93470557  0.21455906  0.86836371  1
  H  H635  1  0.96576537  0.37533987  0.69514692  1
  O  O636  1  0.83276262  0.09494344  0.61874587  1
  H  H637  1  0.96876760  0.33961508  0.85045798  1
  H  H638  1  0.83412095  0.30849739  0.69942867  1
  N  N639  1  0.79399112  0.41636543  0.95389750  1
  H  H640  1  0.80547488  0.37861193  0.80987373  1
  C  C641  1  0.83893869  0.38519390  0.96588893  1
  H  H642  1  0.86942458  0.00254979  0.66703607  1
  C  C643  1  0.87874105  0.02573484  0.53923164  1
  C  C644  1  0.93739351  0.33163604  0.50076471  1
  O  O645  1  0.99072770  0.10680088  0.57853171  1
  C  C646  1  0.78605140  0.47693072  0.72666395  1
  H  H647  1  0.94726529  0.00332361  0.90696274  1
  H  H648  1  0.91284847  0.29065644  0.98604020  1
  H  H649  1  0.97779103  0.33140133  0.52867022  1
  O  O650  1  0.77062123  0.14858950  0.99656632  1
  C  C651  1  0.80267497  0.43505713  0.50953763  1
  C  C652  1  0.84359645  0.31211387  0.50043325  1
  C  C653  1  0.78298389  0.61683763  0.45383587  1
  C  C654  1  0.91491942  0.67850106  0.27040628  1
  C  C655  1  0.77541653  0.59677726  0.08735882  1
  H  H656  1  0.94536105  0.57157719  0.44016062  1
  C  C657  1  0.91340296  0.58063959  0.17819548  1
  C  C658  1  0.92410225  0.66677512  0.04637703  1
  C  C659  1  0.76780397  0.62865103  0.16154893  1
  H  H660  1  0.89726109  0.51024077  0.08363706  1
  C  C661  1  0.86024077  0.83102921  0.31080365  1
  H  H662  1  0.95343981  0.94996049  0.39421303  1
  H  H663  1  0.88195309  0.87108959  0.42787138  1
  C  C664  1  0.75591851  0.69372243  0.16019202  1
  N  N665  1  0.89201758  0.73356104  0.25774773  1
  C  C666  1  0.91407424  0.69102550  0.39617115  1
  C  C667  1  0.83913391  0.83885719  0.23082819  1
  C  C668  1  0.90933646  0.55883753  0.09908005  1
  N  N669  1  0.89005139  0.74675066  0.39465080  1
  C  C670  1  0.78025262  0.58560517  0.37493137  1
  H  H671  1  0.79585653  0.90432338  0.14911601  1
  C  C672  1  0.85988031  0.87976363  0.37083562  1
  H  H673  1  0.93928728  0.73417989  0.13842630  1
  H  H674  1  0.82830900  0.96895238  0.39809344  1
  C  C675  1  0.88264257  0.76861912  0.32223344  1
  C  C676  1  0.92969948  0.68660056  0.12396936  1
  C  C677  1  0.91133222  0.60347949  0.03773165  1
  C  C678  1  0.92102119  0.64459638  0.18965188  1
  C  C679  1  0.83088418  0.93225856  0.35209757  1
  H  H680  1  0.90848936  0.55140264  0.23266429  1
  H  H681  1  0.84815155  0.80385253  0.18562363  1
  N  N682  1  0.92500250  0.65074474  0.34021688  1
  C  C683  1  0.80935189  0.93808450  0.27186757  1
  C  C684  1  0.77568744  0.59394758  0.23730298  1
  N  N685  1  0.77644012  0.62055808  0.30795923  1
  H  H686  1  0.79765256  0.70811937  0.40560522  1
  C  C687  1  0.92720987  0.66274011  0.48025727  1
  C  C688  1  0.77915370  0.50110746  0.29731099  1
  C  C689  1  0.93771070  0.96350502  0.45586546  1
  C  C690  1  0.81195799  0.89369588  0.21015720  1
  C  C691  1  0.76193141  0.62090581  0.01224240  1
  N  N692  1  0.77648505  0.53274716  0.22943990  1
  H  H693  1  0.79957970  0.55381699  0.08831389  1
  N  N694  1  0.78193815  0.52498646  0.37032554  1
  N  N695  1  0.99073965  0.85450411  0.43557756  1
  C  C696  1  0.79388760  0.68089914  0.45951535  1
  H  H697  1  0.87169295  0.98396529  0.18451523  1
  H  H698  1  0.99721251  0.87902034  0.29789498  1
  H  H699  1  0.99811211  0.86006407  0.14955421  1
  H  H700  1  0.75625455  0.72318768  0.21427598  1
  C  C701  1  0.94974424  0.97546869  0.26436359  1
  C  C702  1  0.77942180  0.99436738  0.25419769  1
  C  C703  1  0.91748316  0.98581069  0.18981055  1
  C  C704  1  0.94021474  0.60033271  0.49232165  1
  O  O705  1  0.89583241  0.62926729  0.90274009  1
  H  H706  1  0.92767069  0.91184419  0.65204347  1
  C  C707  1  0.89838019  0.58638563  0.95599977  1
  C  C708  1  0.81794649  0.69159229  0.68855471  1
  H  H709  1  0.79744673  0.57494947  0.65130162  1
  Cu  Cu710  1  0.87808524  0.63085400  0.79792932  1
  C  C711  1  0.80544592  0.66887082  0.60394943  1
  O  O712  1  0.95422243  0.64507065  0.76835933  1
  O  O713  1  0.88612175  0.53274785  0.93470653  1
  C  C714  1  0.95320973  0.62182717  0.63091029  1
  C  C715  1  0.93008177  0.70334319  0.54438081  1
  O  O716  1  0.82154831  0.65570541  0.75018507  1
  H  H717  1  0.94099323  0.71775760  0.67531941  1
  C  C718  1  0.80599051  0.70573463  0.53418850  1
  H  H719  1  0.81666341  0.75485356  0.54188297  1
  O  O720  1  0.82943604  0.74474910  0.68819361  1
  H  H721  1  0.91996985  0.75100733  0.52686446  1
  H  H722  1  0.99396042  0.83392025  0.69825014  1
  C  C723  1  0.95181903  0.57836960  0.56933917  1
  C  C724  1  0.94654880  0.92586447  0.52461716  1
  C  C725  1  0.94095552  0.68504619  0.62313784  1
  C  C726  1  0.96717226  0.60495107  0.71579978  1
  Cu  Cu727  1  0.86236847  0.51327201  0.83504166  1
  H  H728  1  0.91907375  0.82471835  0.81409659  1
  C  C729  1  0.78227972  0.57762779  0.52468920  1
  C  C730  1  0.96270468  0.97147949  0.86187503  1
  C  C731  1  0.79803149  0.60464207  0.59770956  1
  C  C732  1  0.91944500  0.93952735  0.59699180  1
  C  C733  1  0.94665301  0.86269236  0.80622529  1
  C  C734  1  0.94384524  0.91533637  0.85487790  1
  C  C735  1  0.98470411  0.86978821  0.74285057  1
  C  C736  1  0.99974270  0.97682818  0.79269226  1
  H  H737  1  0.76555531  0.59462504  0.95494391  1
  C  C738  1  0.98534173  0.87412447  0.51278967  1
  H  H739  1  0.77126557  0.52943233  0.51552941  1
  C  C740  1  0.88494484  0.98827492  0.60717846  1
  H  H741  1  0.95763808  0.52927246  0.58352355  1
  O  O742  1  0.98186593  0.55354694  0.73580930  1
  H  H743  1  0.92747484  0.69715737  0.99369129  1
