# generated using pymatgen
data_CuH6C11O5
_symmetry_space_group_name_H-M   'P 1'
_cell_length_a   23.05845937
_cell_length_b   21.21339147
_cell_length_c   17.16621502
_cell_angle_alpha   90.00000000
_cell_angle_beta   90.00000000
_cell_angle_gamma   90.00000000
_symmetry_Int_Tables_number   1
_chemical_formula_structural   CuH6C11O5
_chemical_formula_sum   'Cu24 H144 C264 O120'
_cell_volume   8396.82189517
_cell_formula_units_Z   24
loop_
 _symmetry_equiv_pos_site_id
 _symmetry_equiv_pos_as_xyz
  1  'x, y, z'
loop_
 _atom_site_type_symbol
 _atom_site_label
 _atom_site_symmetry_multiplicity
 _atom_site_fract_x
 _atom_site_fract_y
 _atom_site_fract_z
 _atom_site_occupancy
  Cu  Cu0  1  0.11922700  0.23400557  0.12210524  1
  H  H1  1  0.09013228  0.36497210  0.33167942  1
  C  C2  1  0.04956952  0.17968571  0.41691633  1
  H  H3  1  0.17467566  0.30268519  0.37526560  1
  O  O4  1  0.07602412  0.40246372  0.22594604  1
  O  O5  1  0.17745742  0.19673702  0.17806076  1
  C  C6  1  0.24376407  0.40403242  0.07311382  1
  C  C7  1  0.06983029  0.07141047  0.46712316  1
  C  C8  1  0.11735208  0.11479909  0.34768510  1
  C  C9  1  0.16654652  0.34375293  0.49614048  1
  H  H10  1  0.01851832  0.18340054  0.46543576  1
  H  H11  1  0.14219914  0.07102616  0.33658072  1
  O  O12  1  0.18648390  0.10066932  0.22567603  1
  H  H13  1  0.11091824  0.44757281  0.31831596  1
  C  C14  1  0.16634442  0.15257702  0.22756633  1
  C  C15  1  0.12701640  0.16518814  0.29630845  1
  O  O16  1  0.03053257  0.28670037  0.37425387  1
  C  C17  1  0.11418752  0.39773708  0.29314567  1
  C  C18  1  0.01927397  0.41667652  0.23808384  1
  H  H19  1  0.18702773  0.37777085  0.45838634  1
  C  C20  1  0.02460013  0.03144252  0.13545003  1
  C  C21  1  0.00174102  0.08215716  0.09300791  1
  H  H22  1  0.19450308  0.45786417  0.20972934  1
  C  C23  1  0.20211819  0.33696446  0.34448041  1
  C  C24  1  0.08024694  0.12347009  0.41250806  1
  C  C25  1  0.21548304  0.41785348  0.23900755  1
  C  C26  1  0.18050953  0.38171554  0.28933669  1
  H  H27  1  0.11104272  0.26555593  0.27413262  1
  C  C28  1  0.10168295  0.22472659  0.31189995  1
  C  C29  1  0.00729589  0.02758968  0.21377255  1
  C  C30  1  0.06072345  0.23314528  0.36941579  1
  O  O31  1  0.24159190  0.25852055  0.47892517  1
  C  C32  1  0.17170801  0.32831886  0.02147386  1
  O  O33  1  0.17925630  0.29603285  0.08066492  1
  O  O34  1  0.11339459  0.45732999  0.45675856  1
  O  O35  1  0.05223525  0.27091486  0.07517835  1
  H  H36  1  0.12363851  0.45409096  0.14758131  1
  O  O37  1  0.09344249  0.01767088  0.45712263  1
  H  H38  1  0.24614508  0.38057314  0.12821537  1
  C  C39  1  0.02350198  0.09493009  0.01325955  1
  H  H40  1  0.03028958  0.42857426  0.35752747  1
  C  C41  1  0.13311673  0.49204320  0.09975048  1
  H  H42  1  0.17397610  0.47602903  0.07143443  1
  C  C43  1  0.20891100  0.38401755  0.01145155  1
  H  H44  1  0.06058305  0.00398279  0.11208394  1
  H  H45  1  0.01188124  0.29888752  0.49436082  1
  C  C46  1  0.08229199  0.49668912  0.04313764  1
  H  H47  1  0.19349826  0.44993165  0.69916995  1
  H  H48  1  0.02913673  0.33953433  0.97578016  1
  H  H49  1  0.17552905  0.19714304  0.55873899  1
  H  H50  1  0.21396091  0.22875536  0.91658153  1
  H  H51  1  0.17169535  0.39833599  0.89199557  1
  O  O52  1  0.06860346  0.27781860  0.79656875  1
  O  O53  1  0.08599387  0.03960478  0.82156358  1
  C  C54  1  0.07505521  0.21485044  0.63788040  1
  C  C55  1  0.08237127  0.45466989  0.97848061  1
  C  C56  1  0.08544428  0.32268702  0.57688061  1
  H  H57  1  0.06955631  0.37041980  0.86207095  1
  O  O58  1  0.13023228  0.31683505  0.97366957  1
  H  H59  1  0.04466881  0.33566520  0.59731621  1
  C  C60  1  0.10469690  0.26092761  0.59158325  1
  C  C61  1  0.11856811  0.36352141  0.53034710  1
  C  C62  1  0.22332235  0.47697994  0.58095615  1
  H  H63  1  0.11709683  0.42006423  0.97288188  1
  O  O64  1  0.20614359  0.47498508  0.81200194  1
  H  H65  1  0.13746832  0.32693997  0.71395056  1
  O  O66  1  0.03883496  0.08087889  0.52574789  1
  Cu  Cu67  1  0.06557426  0.08520832  0.62717031  1
  C  C68  1  0.17203650  0.27815082  0.81433828  1
  C  C69  1  0.11269723  0.25727528  0.83205749  1
  C  C70  1  0.20399523  0.41318770  0.93927294  1
  O  O71  1  0.10694085  0.21790213  0.88579335  1
  C  C72  1  0.15729831  0.24517917  0.55318482  1
  O  O73  1  0.09499554  0.15991976  0.64851714  1
  C  C74  1  0.21749161  0.25879069  0.86207605  1
  O  O75  1  0.07105669  0.01912615  0.69545091  1
  C  C76  1  0.03613545  0.40496403  0.85550852  1
  C  C77  1  0.17682907  0.31814721  0.74803629  1
  Cu  Cu78  1  0.08516037  0.24238482  0.98317362  1
  O  O79  1  0.04385297  0.44183359  0.54153629  1
  C  C80  1  0.20463611  0.42760047  0.64281949  1
  C  C81  1  0.03599842  0.45363407  0.92367216  1
  H  H82  1  0.16478139  0.40301688  0.61824183  1
  O  O83  1  0.05194158  0.05460830  0.97591479  1
  C  C84  1  0.09970175  0.01165498  0.75871270  1
  C  C85  1  0.23896612  0.46809589  0.93786119  1
  O  O86  1  0.02342453  0.22952984  0.65887857  1
  H  H87  1  0.04137775  0.42925961  0.80281519  1
  O  O88  1  0.24642655  0.38317265  0.66942442  1
  C  C89  1  0.23058572  0.34173758  0.73105689  1
  O  O90  1  0.00040019  0.13963052  0.97856293  1
  C  C91  1  0.23540388  0.49840705  0.86178965  1
  Cu  Cu92  1  0.02228432  0.02086442  0.87912711  1
  C  C93  1  0.19266293  0.28282147  0.50933653  1
  C  C94  1  0.09376290  0.42808815  0.50936222  1
  H  H95  1  0.16306308  0.58513828  0.01630379  1
  H  H96  1  0.14325327  0.63268537  0.26117166  1
  O  O97  1  0.14138081  0.54213946  0.16573100  1
  C  C98  1  0.03914491  0.54259983  0.05411919  1
  C  C99  1  0.17861021  0.68235785  0.05232616  1
  Cu  Cu100  1  0.04456090  0.94557847  0.43380951  1
  C  C101  1  0.16685606  0.70993937  0.18612265  1
  O  O102  1  0.18424774  0.80677391  0.24302310  1
  H  H103  1  0.15238261  0.62329534  0.43977241  1
  C  C104  1  0.16227244  0.75637642  0.25323548  1
  C  C105  1  0.15429385  0.60091867  0.14237167  1
  C  C106  1  0.15341457  0.64774699  0.20202663  1
  C  C107  1  0.16554682  0.61975893  0.06370390  1
  H  H108  1  0.17970676  0.78030628  0.09710767  1
  H  H109  1  0.03290780  0.57733960  0.10503491  1
  O  O110  1  0.04363634  0.77828832  0.40116080  1
  C  C111  1  0.00343587  0.80865679  0.43517075  1
  Cu  Cu112  1  0.12868079  0.79154676  0.39873042  1
  C  C113  1  0.17824090  0.72930263  0.11090708  1
  O  O114  1  0.06938970  0.94606195  0.24922317  1
  O  O115  1  0.13903047  0.74247118  0.31940321  1
  O  O116  1  0.13383548  0.84449398  0.47530379  1
  O  O117  1  0.01000493  0.97907571  0.34264363  1
  C  C118  1  0.18813478  0.63425259  0.47923583  1
  C  C119  1  0.03386093  0.98182456  0.27238329  1
  O  O120  1  0.22940655  0.68088597  0.43114724  1
  C  C121  1  0.07114173  0.81307871  0.74183767  1
  C  C122  1  0.10480407  0.82525267  0.60585071  1
  H  H123  1  0.14023707  0.94566402  0.63796838  1
  C  C124  1  0.07067392  0.84366961  0.66880999  1
  H  H125  1  0.04473259  0.88851628  0.66037708  1
  C  C126  1  0.18859336  0.69157851  0.69466821  1
  C  C127  1  0.16544319  0.93837925  0.69214618  1
  H  H128  1  0.11586276  0.73373623  0.79574838  1
  O  O129  1  0.06924623  0.90804081  0.52868401  1
  H  H130  1  0.07326159  0.81534556  0.91956832  1
  H  H131  1  0.17150335  0.76499655  0.55965869  1
  O  O132  1  0.22896771  0.68242273  0.65467624  1
  C  C133  1  0.03800544  0.79398595  0.88363961  1
  C  C134  1  0.10102841  0.85999194  0.53359694  1
  C  C135  1  0.23924368  0.88850555  0.76618988  1
  O  O136  1  0.18437490  0.66263000  0.92070624  1
  C  C137  1  0.21831362  0.91989145  0.83180373  1
  C  C138  1  0.11060118  0.76087322  0.74349850  1
  H  H139  1  0.05512894  0.74895155  0.85673351  1
  C  C140  1  0.17094345  0.95978024  0.83575094  1
  O  O141  1  0.04024919  0.83113068  0.80048716  1
  C  C142  1  0.14326289  0.74323547  0.68075993  1
  C  C143  1  0.14967975  0.96857024  0.75933626  1
  C  C144  1  0.14254182  0.77351667  0.60874746  1
  O  O145  1  0.21431830  0.75655657  0.96331526  1
  C  C146  1  0.21662702  0.89989889  0.69094724  1
  O  O147  1  0.17826356  0.65682348  0.75652857  1
  H  H148  1  0.15688494  0.98493283  0.88834988  1
  O  O149  1  0.23959774  0.88105593  0.62582311  1
  H  H150  1  0.17088678  0.66296114  0.52930429  1
  C  C151  1  0.24691772  0.90288263  0.90846830  1
  C  C152  1  0.19412170  0.70301635  0.97235355  1
  O  O153  1  0.23328862  0.92625653  0.96930904  1
  Cu  Cu154  1  0.23116386  0.63280325  0.83667208  1
  C  C155  1  0.21598821  0.57384100  0.50794747  1
  H  H156  1  0.15195270  0.54654220  0.59705566  1
  C  C157  1  0.19360062  0.53565124  0.56760284  1
  H  H158  1  0.31669897  0.27106222  0.41864028  1
  C  C159  1  0.27894753  0.30243747  0.42820359  1
  C  C160  1  0.26198850  0.33990265  0.35567723  1
  H  H161  1  0.34905726  0.36709253  0.31629117  1
  H  H162  1  0.34979449  0.39160770  0.17953912  1
  C  C163  1  0.48656944  0.48389677  0.09798454  1
  C  C164  1  0.30318340  0.36937542  0.30574468  1
  H  H165  1  0.45120321  0.31360850  0.44437619  1
  C  C166  1  0.34651345  0.47547962  0.43736680  1
  H  H167  1  0.28918206  0.33810218  0.47461799  1
  O  O168  1  0.37836580  0.41076311  0.43277121  1
  O  O169  1  0.31642925  0.47568697  0.12013653  1
  H  H170  1  0.33957534  0.47323333  0.37147025  1
  C  C171  1  0.40331700  0.38581419  0.49726579  1
  C  C172  1  0.28021336  0.45676742  0.06765954  1
  C  C173  1  0.27756980  0.40835938  0.24747599  1
  H  H174  1  0.40821111  0.45584229  0.05089995  1
  C  C175  1  0.44842486  0.47952305  0.03579472  1
  C  C176  1  0.29329767  0.49971562  0.48184522  1
  O  O177  1  0.48107410  0.45900861  0.17400570  1
  C  C178  1  0.32383755  0.43372289  0.19568309  1
  H  H179  1  0.35742294  0.46292325  0.22718129  1
  Cu  Cu180  1  0.38191708  0.38148268  0.88305531  1
  O  O181  1  0.41377097  0.39068145  0.77926733  1
  O  O182  1  0.31988663  0.24404181  0.95593980  1
  O  O183  1  0.37329829  0.29852457  0.87635111  1
  H  H184  1  0.47746410  0.31937763  0.69606683  1
  H  H185  1  0.36419955  0.45150945  0.57207802  1
  C  C186  1  0.32404677  0.27406679  0.89816374  1
  C  C187  1  0.39491515  0.41248428  0.57143314  1
  O  O188  1  0.37718779  0.46338032  0.90756579  1
  C  C189  1  0.41834378  0.39050972  0.64096985  1
  C  C190  1  0.46680135  0.31265663  0.56854882  1
  C  C191  1  0.39892319  0.41637648  0.71531429  1
  C  C192  1  0.27649011  0.32236504  0.77859395  1
  O  O193  1  0.36899947  0.46575959  0.71474082  1
  C  C194  1  0.45855731  0.34041122  0.64192226  1
  H  H195  1  0.31748036  0.34274972  0.76610515  1
  C  C196  1  0.27095548  0.28482645  0.84491983  1
  H  H197  1  0.29165740  0.41063904  0.54639942  1
  C  C198  1  0.27232174  0.45629026  0.53830884  1
  H  H199  1  0.40182808  0.01797277  0.79613669  1
  O  O200  1  0.45031744  0.00009455  0.89089729  1
  C  C201  1  0.27539673  0.48998501  0.99570413  1
  C  C202  1  0.43932854  0.33280056  0.50064434  1
  H  H203  1  0.41188675  0.70280435  0.04159992  1
  O  O204  1  0.48661022  0.70805043  0.15609603  1
  C  C205  1  0.26548839  0.55611802  0.46452863  1
  C  C206  1  0.42628097  0.73916400  0.35919969  1
  C  C207  1  0.38698750  0.84513291  0.07180466  1
  C  C208  1  0.32350832  0.71210419  0.39866336  1
  Cu  Cu209  1  0.43548803  0.76566281  0.19893907  1
  C  C210  1  0.42514362  0.89965952  0.05848168  1
  H  H211  1  0.38087549  0.50888136  0.44799366  1
  O  O212  1  0.38454593  0.82264227  0.13821062  1
  H  H213  1  0.45538106  0.90716273  0.17922311  1
  C  C214  1  0.45902123  0.92468011  0.11867757  1
  C  C215  1  0.40638185  0.68915529  0.48450024  1
  O  O216  1  0.40875439  0.76896143  0.29614772  1
  C  C217  1  0.38261005  0.71064111  0.41434862  1
  H  H218  1  0.47134796  0.53891103  0.35847282  1
  H  H219  1  0.30771067  0.73279947  0.34308265  1
  C  C220  1  0.28467790  0.68521493  0.45259478  1
  H  H221  1  0.28195803  0.58320772  0.41302181  1
  O  O222  1  0.36111768  0.82501353  0.01023412  1
  O  O223  1  0.47750795  0.74064624  0.37211824  1
  C  C224  1  0.49455854  0.99391764  0.02084420  1
  C  C225  1  0.49537978  0.97300719  0.09609673  1
  C  C226  1  0.44780621  0.72017760  0.00337961  1
  H  H227  1  0.32080703  0.94181742  0.73494479  1
  O  O228  1  0.36444010  0.73145304  0.82435428  1
  H  H229  1  0.28124039  0.79226924  0.65043126  1
  H  H230  1  0.31054515  0.83247101  0.56974520  1
  C  C231  1  0.36831990  0.65717178  0.53276899  1
  C  C232  1  0.45665180  0.97437801  0.96053322  1
  C  C233  1  0.43382097  0.73434764  0.92672486  1
  O  O234  1  0.36201432  0.58561876  0.65089123  1
  C  C235  1  0.30992324  0.65523466  0.51823679  1
  H  H236  1  0.39694321  0.89690371  0.93570629  1
  Cu  Cu237  1  0.38511870  0.55040882  0.74650066  1
  H  H238  1  0.49847023  0.88944492  0.79444279  1
  C  C239  1  0.39265532  0.62610419  0.60695399  1
  H  H240  1  0.40614234  0.78968382  0.61052950  1
  H  H241  1  0.27381194  0.85741069  0.77699806  1
  C  C242  1  0.41581516  0.50440591  0.89843423  1
  O  O243  1  0.33119803  0.72037586  0.94217076  1
  C  C244  1  0.29963082  0.84161324  0.63179271  1
  H  H245  1  0.46238374  0.77199049  0.81560986  1
  C  C246  1  0.48983333  0.51700007  0.53153230  1
  O  O247  1  0.28318474  0.85531339  0.90823970  1
  C  C248  1  0.35726317  0.91104785  0.72901672  1
  C  C249  1  0.37323223  0.72691599  0.89189842  1
  C  C250  1  0.35523873  0.85822837  0.67442502  1
  C  C251  1  0.42408076  0.92109622  0.98118086  1
  C  C252  1  0.47375640  0.76058662  0.87531836  1
  C  C253  1  0.40775087  0.82436845  0.65881262  1
  C  C254  1  0.46103255  0.88169828  0.76027356  1
  C  C255  1  0.45938072  0.83300991  0.70286599  1
  C  C256  1  0.40253209  0.97267762  0.82969529  1
  C  C257  1  0.40956248  0.91761629  0.77245867  1
  H  H258  1  0.45066146  0.69801196  0.50163367  1
  H  H259  1  0.36182952  0.97084151  0.86487508  1
  O  O260  1  0.26171802  0.55520995  0.85291195  1
  H  H261  1  0.28428442  0.63502442  0.56699892  1
  H  H262  1  0.30012654  0.53329249  0.98140751  1
  O  O263  1  0.44094196  0.63859711  0.62542871  1
  H  H264  1  0.44181624  0.51719438  0.54414227  1
  Cu  Cu265  1  0.28930527  0.78995245  0.98820407  1
  C  C266  1  0.45665402  0.50739804  0.96185365  1
  O  O267  1  0.42692919  0.52993340  0.83285112  1
  O  O268  1  0.69684656  0.12869147  0.20014241  1
  H  H269  1  0.73325722  0.29859867  0.11355110  1
  C  C270  1  0.70356817  0.23921744  0.20867010  1
  C  C271  1  0.71330211  0.29421389  0.17238103  1
  C  C272  1  0.65777782  0.28880349  0.32899934  1
  C  C273  1  0.70795898  0.41234247  0.18258554  1
  Cu  Cu274  1  0.63201023  0.08549793  0.16553765  1
  C  C275  1  0.69783559  0.34927627  0.21589864  1
  C  C276  1  0.52109455  0.48368316  0.22805136  1
  C  C277  1  0.67392296  0.23797534  0.27960804  1
  C  C278  1  0.67398884  0.34484535  0.29041287  1
  C  C279  1  0.71958669  0.17918861  0.17349418  1
  H  H280  1  0.57664200  0.38124536  0.28438372  1
  O  O281  1  0.69453591  0.46039840  0.21176591  1
  H  H282  1  0.66760474  0.38967700  0.31962040  1
  O  O283  1  0.63102381  0.28240458  0.39638607  1
  O  O284  1  0.56242806  0.05480412  0.13447472  1
  H  H285  1  0.65966091  0.19190263  0.30178539  1
  O  O286  1  0.50997652  0.22887750  0.49731645  1
  O  O287  1  0.67474436  0.03056201  0.08874627  1
  C  C288  1  0.54544962  0.42696132  0.47511240  1
  H  H289  1  0.66266135  0.37191371  0.43132927  1
  C  C290  1  0.57319861  0.39622611  0.41170995  1
  C  C291  1  0.55912012  0.41095985  0.33352162  1
  C  C292  1  0.61892594  0.34920334  0.43563942  1
  C  C293  1  0.71442338  0.05153589  0.04640645  1
  O  O294  1  0.72694261  0.40530679  0.10708868  1
  Cu  Cu295  1  0.74557196  0.18009799  0.01228072  1
  C  C296  1  0.51107316  0.48037046  0.45800967  1
  H  H297  1  0.52467888  0.03244979  0.00781973  1
  H  H298  1  0.56488905  0.47442698  0.20519241  1
  C  C299  1  0.53798981  0.00211143  0.15606385  1
  C  C300  1  0.52506151  0.46390555  0.31785435  1
  H  H301  1  0.61244983  0.33431449  0.49473137  1
  O  O302  1  0.70930300  0.10267481  0.00660818  1
  H  H303  1  0.55361985  0.41243663  0.53208118  1
  O  O304  1  0.73334604  0.03519384  0.81158001  1
  C  C305  1  0.68691367  0.48654179  0.65939092  1
  O  O306  1  0.65382929  0.23708707  0.68042244  1
  C  C307  1  0.70967576  0.24394649  0.68017630  1
  C  C308  1  0.65529916  0.45946198  0.79906929  1
  C  C309  1  0.64362492  0.47713955  0.71483706  1
  O  O310  1  0.70600406  0.45285951  0.82920319  1
  Cu  Cu311  1  0.74419731  0.38134345  0.86000702  1
  C  C312  1  0.66508277  0.08655796  0.54619271  1
  H  H313  1  0.67784962  0.13256907  0.74241809  1
  Cu  Cu314  1  0.61533896  0.19759231  0.59711967  1
  C  C315  1  0.72603708  0.14082792  0.74982506  1
  O  O316  1  0.55432272  0.25356643  0.60396695  1
  H  H317  1  0.55110514  0.47332064  0.74765742  1
  O  O318  1  0.61008950  0.44762412  0.83129907  1
  O  O319  1  0.73272246  0.28880390  0.65440109  1
  O  O320  1  0.67247547  0.13949067  0.58221740  1
  H  H321  1  0.73683852  0.48507734  0.67051957  1
  C  C322  1  0.58442191  0.48173556  0.70016300  1
  C  C323  1  0.71652200  0.04350779  0.53118613  1
  C  C324  1  0.50969042  0.26124325  0.55203444  1
  C  C325  1  0.66395549  0.49815787  0.58629537  1
  C  C326  1  0.56264033  0.49338061  0.62339609  1
  O  O327  1  0.50708992  0.49759429  0.61148946  1
  O  O328  1  0.61961914  0.06944920  0.51944304  1
  O  O329  1  0.57702186  0.73260364  0.12025766  1
  O  O330  1  0.69297210  0.51676931  0.45558397  1
  O  O331  1  0.71526092  0.87835384  0.40523458  1
  Cu  Cu332  1  0.71399892  0.81786284  0.33138494  1
  H  H333  1  0.56737198  0.52878600  0.12336868  1
  C  C334  1  0.50520985  0.73073281  0.02590457  1
  Cu  Cu335  1  0.63367398  0.67678025  0.08400506  1
  C  C336  1  0.52442786  0.71994075  0.10656003  1
  O  O337  1  0.68317070  0.75521807  0.39591736  1
  H  H338  1  0.51758814  0.53679349  0.22648968  1
  H  H339  1  0.73787994  0.75267609  0.11638382  1
  C  C340  1  0.70685470  0.72709312  0.45324670  1
  C  C341  1  0.54819027  0.54807306  0.00727137  1
  O  O342  1  0.63109477  0.59778528  0.05198499  1
  O  O343  1  0.69002455  0.70689130  0.00548667  1
  C  C344  1  0.53508173  0.52027567  0.08006978  1
  H  H345  1  0.66686870  0.97614199  0.46645895  1
  O  O346  1  0.74910835  0.77863289  0.24391737  1
  C  C347  1  0.50019440  0.50018746  0.37769256  1
  H  H348  1  0.73618205  0.94533852  0.11453004  1
  H  H349  1  0.60360596  0.77368156  0.48004752  1
  C  C350  1  0.70932670  0.98761373  0.49217521  1
  O  O351  1  0.54841078  0.97858532  0.21644867  1
  C  C352  1  0.53271494  0.76794087  0.89656330  1
  C  C353  1  0.69623056  0.67892413  0.58101640  1
  H  H354  1  0.73900840  0.65455175  0.57671939  1
  H  H355  1  0.69821634  0.73888448  0.75308276  1
  C  C356  1  0.66389093  0.67540617  0.64852819  1
  C  C357  1  0.50681431  0.54240551  0.94825457  1
  O  O358  1  0.61300308  0.60991569  0.92909724  1
  O  O359  1  0.57177283  0.79434113  0.84590251  1
  H  H360  1  0.63982246  0.74370608  0.88950134  1
  H  H361  1  0.62780165  0.82184279  0.92861552  1
  C  C362  1  0.67447104  0.71683821  0.52151667  1
  C  C363  1  0.60073326  0.58611605  0.99261544  1
  C  C364  1  0.61122997  0.70935121  0.65750542  1
  H  H365  1  0.58781279  0.70618641  0.71139948  1
  C  C366  1  0.51202248  0.78978420  0.68221277  1
  C  C367  1  0.63307057  0.79446320  0.87253539  1
  H  H368  1  0.68033217  0.92239838  0.86704902  1
  H  H369  1  0.50209259  0.73870475  0.70534950  1
  C  C370  1  0.73480627  0.67363346  0.99280624  1
  C  C371  1  0.68720592  0.64118860  0.71712611  1
  H  H372  1  0.54622767  0.81044719  0.71865616  1
  C  C373  1  0.70394112  0.88847609  0.83024436  1
  C  C374  1  0.61929628  0.74512849  0.52911328  1
  O  O375  1  0.65344084  0.62932926  0.77638719  1
  C  C376  1  0.58760915  0.74563874  0.59826553  1
  C  C377  1  0.54583327  0.75708937  0.97434769  1
  Cu  Cu378  1  0.68278354  0.60911273  0.86962464  1
  C  C379  1  0.68236878  0.82585342  0.82152308  1
  O  O380  1  0.53367199  0.77561478  0.60573212  1
  C  C381  1  0.71051419  0.78733426  0.76582684  1
  H  H382  1  0.59233224  0.51507496  0.50540842  1
  H  H383  1  0.50115700  0.56725154  0.51926638  1
  H  H384  1  0.51161868  0.56145497  0.88773621  1
  C  C385  1  0.60607355  0.50308199  0.56675728  1
  O  O386  1  0.73862728  0.62828165  0.71755928  1
  O  O387  1  0.73896793  0.63695306  0.93873266  1
  C  C388  1  0.70611182  0.50453749  0.52133716  1
  H  H389  1  0.59115271  0.76367595  0.99310239  1
  C  C390  1  0.93818468  0.44959313  0.31898081  1
  H  H391  1  0.85160881  0.07941027  0.45129171  1
  C  C392  1  0.88821524  0.44055150  0.10653974  1
  C  C393  1  0.98170242  0.42201750  0.17531547  1
  C  C394  1  0.89462098  0.27994195  0.02547785  1
  C  C395  1  0.95379688  0.29352505  0.02928221  1
  H  H396  1  0.82595913  0.14481096  0.28607647  1
  O  O397  1  0.90695052  0.43090516  0.04512599  1
  C  C398  1  0.88534542  0.15784009  0.38347234  1
  C  C399  1  0.99696535  0.43065009  0.31090807  1
  H  H400  1  0.94762814  0.05822851  0.30716069  1
  H  H401  1  0.92918983  0.23862739  0.32278399  1
  C  C402  1  0.96344014  0.06366727  0.24688413  1
  C  C403  1  0.77002192  0.01834652  0.04074767  1
  H  H404  1  0.96492423  0.33619562  0.42290086  1
  C  C405  1  0.91488888  0.21702877  0.37928014  1
  C  C406  1  0.86791987  0.12627534  0.30770105  1
  H  H407  1  0.99760219  0.41294460  0.11683774  1
  C  C408  1  0.98406322  0.29102441  0.44044755  1
  H  H409  1  0.86339059  0.07391096  0.30807307  1
  C  C410  1  0.92216968  0.43781640  0.18320298  1
  O  O411  1  0.94357784  0.45271674  0.45695556  1
  O  O412  1  0.83414032  0.46088851  0.12145759  1
  O  O413  1  0.97970838  0.25401295  0.15656136  1
  C  C414  1  0.87347938  0.12415343  0.45371572  1
  C  C415  1  0.99491871  0.27577105  0.09629493  1
  C  C416  1  0.93876697  0.11158607  0.19945432  1
  H  H417  1  0.94771058  0.16062492  0.08777625  1
  O  O418  1  0.89529475  0.14857209  0.23128361  1
  C  C419  1  0.96086286  0.12213216  0.12575282  1
  C  C420  1  0.93801491  0.23772006  0.44993460  1
  C  C421  1  0.91486516  0.46083671  0.39553618  1
  H  H422  1  0.87180323  0.25811565  0.07734151  1
  C  C423  1  0.89998742  0.45339258  0.25389944  1
  O  O424  1  0.86024656  0.47282609  0.40447516  1
  H  H425  1  0.85455433  0.46974825  0.26034118  1
  Cu  Cu426  1  0.77377074  0.45225760  0.04549313  1
  O  O427  1  0.75692866  0.17980178  0.12013090  1
  O  O428  1  0.77351599  0.26480415  0.00599892  1
  O  O429  1  0.92463925  0.22471847  0.73228411  1
  H  H430  1  0.82795758  0.25550150  0.70030093  1
  O  O431  1  0.95488255  0.42491974  0.65490750  1
  H  H432  1  0.87016431  0.32809869  0.84101875  1
  C  C433  1  0.84336757  0.15988288  0.75121666  1
  Cu  Cu434  1  0.96862339  0.13046049  0.88319529  1
  O  O435  1  0.93990192  0.12998203  0.78074098  1
  C  C436  1  0.92398905  0.20866801  0.52281540  1
  H  H437  1  0.92991096  0.11959674  0.62828867  1
  O  O438  1  0.87148716  0.04478543  0.59593576  1
  C  C439  1  0.76742345  0.06327979  0.56867769  1
  C  C440  1  0.86675521  0.29810470  0.95666540  1
  H  H441  1  0.76640638  0.10706221  0.60134674  1
  C  C442  1  0.80821338  0.20883542  0.71910272  1
  C  C443  1  0.98321794  0.32478004  0.96910870  1
  C  C444  1  0.80319155  0.29015245  0.95228704  1
  O  O445  1  0.98033029  0.37025234  0.83638105  1
  C  C446  1  0.89551983  0.32268626  0.89397408  1
  O  O447  1  0.81569969  0.41987858  0.89134263  1
  C  C448  1  0.81842369  0.10296373  0.77682443  1
  C  C449  1  0.95572118  0.33956927  0.89757583  1
  H  H450  1  0.84966661  0.06568977  0.80137149  1
  H  H451  1  0.81002151  0.08582502  0.96270477  1
  H  H452  1  0.94011018  0.23160773  0.57394608  1
  C  C453  1  0.90409096  0.17225067  0.75915930  1
  C  C454  1  0.75833376  0.09136315  0.78054795  1
  O  O455  1  0.90189882  0.07996271  0.91022619  1
  C  C456  1  0.88927742  0.11102129  0.59918088  1
  H  H457  1  0.85250982  0.13029768  0.63461711  1
  H  H458  1  0.88849332  0.42339108  0.79009494  1
  C  C459  1  0.95011301  0.48013129  0.66646625  1
  C  C460  1  0.90955225  0.02836791  0.94503720  1
  O  O461  1  0.77941857  0.30275229  0.88687445  1
  C  C462  1  0.82443450  0.47708467  0.90823899  1
  C  C463  1  0.81807137  0.02721743  0.56544705  1
  C  C464  1  0.88274251  0.47591408  0.78650142  1
  C  C465  1  0.89485065  0.14989860  0.52427153  1
  C  C466  1  0.81398266  0.04225762  0.99714753  1
  C  C467  1  0.75044487  0.19545669  0.71671537  1
  Cu  Cu468  1  0.99917899  0.24916042  0.75937092  1
  H  H469  1  0.95814197  0.49814309  0.88721552  1
  C  C470  1  0.86531950  0.00442256  0.99676010  1
  C  C471  1  0.81380542  0.71568754  0.17477811  1
  O  O472  1  0.92866549  0.61697280  0.09325737  1
  C  C473  1  0.75995149  0.94984271  0.49029278  1
  Cu  Cu474  1  0.81094449  0.77025052  0.40696389  1
  C  C475  1  0.83288356  0.64368186  0.04804575  1
  H  H476  1  0.89726687  0.68621803  0.21799343  1
  O  O477  1  0.99416808  0.86654034  0.42802828  1
  C  C478  1  0.86550136  0.68261374  0.17085646  1
  H  H479  1  0.99650672  0.82995669  0.03757018  1
  H  H480  1  0.85814560  0.78909325  0.13292002  1
  C  C481  1  0.95976820  0.70552733  0.47504361  1
  O  O482  1  0.83260355  0.75828066  0.30155151  1
  C  C483  1  0.77243008  0.95961774  0.07809725  1
  O  O484  1  0.76078891  0.71555905  0.45593206  1
  C  C485  1  0.76102242  0.89240150  0.44522092  1
  O  O486  1  0.95067162  0.57897404  0.47906580  1
  O  O487  1  0.82062530  0.86349586  0.10899272  1
  C  C488  1  0.87687838  0.64533555  0.10654331  1
  C  C489  1  0.82080588  0.92085023  0.07172052  1
  C  C490  1  0.87913932  0.82715931  0.09758929  1
  H  H491  1  0.91293026  0.84803136  0.13142122  1
  O  O492  1  0.80574421  0.85807490  0.44429254  1
  H  H493  1  0.98654596  0.67698632  0.43848445  1
  C  C494  1  0.87012770  0.94522868  0.03400183  1
  C  C495  1  0.77304020  0.71739743  0.11605742  1
  C  C496  1  0.90428775  0.80274375  0.01991074  1
  C  C497  1  0.78259683  0.67694037  0.05084400  1
  C  C498  1  0.79917955  0.75467708  0.24496634  1
  C  C499  1  0.96272187  0.77193185  0.48339007  1
  C  C500  1  0.99268935  0.54181986  0.00011056  1
  H  H501  1  0.90596583  0.91367191  0.02331145  1
  Cu  Cu502  1  0.82752125  0.52094211  0.48029463  1
  C  C503  1  0.93632194  0.57771670  0.01489067  1
  H  H504  1  0.89839809  0.54693853  0.01844478  1
  C  C505  1  0.96450879  0.80641518  0.00167763  1
  H  H506  1  0.79727145  0.98870290  0.84765323  1
  C  C507  1  0.85199767  0.50994678  0.84146610  1
  C  C508  1  0.75714035  0.80995232  0.71716309  1
  C  C509  1  0.92299334  0.80637966  0.52516593  1
  O  O510  1  0.97823006  0.52208019  0.62069343  1
  H  H511  1  0.81876343  0.88962986  0.70115664  1
  C  C512  1  0.87793056  0.60902877  0.78639479  1
  H  H513  1  0.78509879  0.99387509  0.73868162  1
  O  O514  1  0.84110978  0.80680323  0.61246773  1
  C  C515  1  0.91520044  0.67726789  0.51485618  1
  C  C516  1  0.91152205  0.51079080  0.72989902  1
  H  H517  1  0.92933596  0.85761519  0.52574583  1
  H  H518  1  0.82514574  0.60303397  0.89028007  1
  O  O519  1  0.80913371  0.50223143  0.97083428  1
  C  C520  1  0.87494695  0.70994883  0.55991178  1
  H  H521  1  0.92389204  0.60234039  0.67397230  1
  C  C522  1  0.84747405  0.57494458  0.84274014  1
  H  H523  1  0.81703533  0.67680619  0.86790391  1
  O  O524  1  0.86538942  0.58236083  0.53402530  1
  H  H525  1  0.95561893  0.73632576  0.82002098  1
  C  C526  1  0.78648535  0.77302589  0.65173214  1
  H  H527  1  0.82018530  0.74069408  0.80452628  1
  C  C528  1  0.78312570  0.87027958  0.73343197  1
  H  H529  1  0.81905270  0.76544396  0.99267933  1
  H  H530  1  0.80344453  0.72833015  0.67581942  1
  H  H531  1  0.84281539  0.67983108  0.58802898  1
  C  C532  1  0.90691731  0.57556242  0.72516385  1
  C  C533  1  0.84747571  0.71104723  0.84131699  1
  O  O534  1  0.87786316  0.67177349  0.77764910  1
  C  C535  1  0.87780458  0.77579612  0.56777925  1
  C  C536  1  0.99423009  0.50131967  0.93285802  1
  H  H537  1  0.92832095  0.61278157  0.96818554  1
  C  C538  1  0.88200186  0.74974060  0.89907027  1
  C  C539  1  0.94155246  0.75476528  0.87627023  1
  C  C540  1  0.81226141  0.97058745  0.52622286  1
  C  C541  1  0.76677020  0.97926848  0.79642465  1
  H  H542  1  0.85328148  0.94650422  0.52029516  1
  C  C543  1  0.86394287  0.77331834  0.97128341  1
  C  C544  1  0.91259907  0.60883138  0.51422541  1
  C  C545  1  0.98024694  0.78680161  0.92630227  1
  H  H546  1  0.84025261  0.61118483  0.99966229  1
  H  H547  1  0.75409072  0.76350885  0.60780006  1
  O  O548  1  0.95419473  0.99278121  0.93077096  1
  O  O549  1  0.76227578  0.50541133  0.54228047  1
  Cu  Cu550  1  0.99114279  0.50742195  0.51577618  1
  C  C551  1  0.75293454  0.90788101  0.78777366  1
