# generated using pymatgen
data_ZnH6C11O5
_symmetry_space_group_name_H-M   'P 1'
_cell_length_a   19.12444587
_cell_length_b   24.12733729
_cell_length_c   16.54536520
_cell_angle_alpha   90.00000000
_cell_angle_beta   90.00000000
_cell_angle_gamma   90.00000000
_symmetry_Int_Tables_number   1
_chemical_formula_structural   ZnH6C11O5
_chemical_formula_sum   'Zn24 H144 C264 O120'
_cell_volume   7634.39477219
_cell_formula_units_Z   24
loop_
 _symmetry_equiv_pos_site_id
 _symmetry_equiv_pos_as_xyz
  1  'x, y, z'
loop_
 _atom_site_type_symbol
 _atom_site_label
 _atom_site_symmetry_multiplicity
 _atom_site_fract_x
 _atom_site_fract_y
 _atom_site_fract_z
 _atom_site_occupancy
  C  C0  1  0.13902295  0.04710255  0.46938496  1
  C  C1  1  0.34020099  0.14266570  0.05325865  1
  C  C2  1  0.44444149  0.07957663  0.47466633  1
  O  O3  1  0.35862867  0.14330160  0.41628757  1
  O  O4  1  0.45113837  0.02762615  0.11927582  1
  O  O5  1  0.23414304  0.13334064  0.12369130  1
  C  C6  1  0.26845703  0.16191557  0.07537517  1
  O  O7  1  0.20568857  0.19780372  0.34756053  1
  O  O8  1  0.23944626  0.19856293  0.03414340  1
  Zn  Zn9  1  0.12239769  0.12327707  0.15840096  1
  H  H10  1  0.32352365  0.07042534  0.13050652  1
  H  H11  1  0.03720970  0.20975024  0.21666438  1
  O  O12  1  0.10704794  0.03917090  0.14823291  1
  Zn  Zn13  1  0.25235398  0.14220921  0.44445009  1
  H  H14  1  0.41387254  0.00150649  0.37420573  1
  O  O15  1  0.43160265  0.10971686  0.33179698  1
  C  C16  1  0.19407165  0.03614630  0.01731232  1
  O  O17  1  0.07917051  0.05780971  0.44967248  1
  C  C18  1  0.41026602  0.11019938  0.40233844  1
  O  O19  1  0.12929922  0.14681832  0.28416901  1
  C  C20  1  0.16218918  0.19364556  0.29358389  1
  C  C21  1  0.36097997  0.09454669  0.09094474  1
  Zn  Zn22  1  0.05351054  0.12839313  0.37403210  1
  O  O23  1  0.04552740  0.15351799  0.07579317  1
  H  H24  1  0.42119223  0.03048135  0.27053205  1
  O  O25  1  0.19119948  0.07138612  0.43497214  1
  C  C26  1  0.42988862  0.07207956  0.08391723  1
  H  H27  1  0.15398080  0.06969605  0.02357625  1
  C  C28  1  0.47293820  0.10350590  0.02952814  1
  C  C29  1  0.03145815  0.14643159  0.00410011  1
  H  H30  1  0.12363995  0.20959694  0.47288696  1
  C  C31  1  0.38561238  0.17389599  0.00198943  1
  C  C32  1  0.13532052  0.24630367  0.25020268  1
  O  O33  1  0.00301723  0.20542932  0.38681960  1
  C  C34  1  0.49603026  0.03773334  0.47348559  1
  C  C35  1  0.06846444  0.24755941  0.21772009  1
  O  O36  1  0.27635292  0.08050178  0.83151974  1
  C  C37  1  0.02053126  0.05968955  0.91834511  1
  Zn  Zn38  1  0.29738593  0.15520139  0.76751977  1
  C  C39  1  0.42140856  0.09818549  0.55059785  1
  C  C40  1  0.44866249  0.07390976  0.61976690  1
  O  O41  1  0.32607056  0.22238623  0.84676999  1
  C  C42  1  0.20277337  0.19985263  0.61011432  1
  H  H43  1  0.38120912  0.13018206  0.56015282  1
  C  C44  1  0.01247293  0.21386271  0.67572938  1
  O  O45  1  0.22671552  0.20547432  0.67876147  1
  H  H46  1  0.07009966  0.06613657  0.88991995  1
  C  C47  1  0.42856592  0.10566737  0.69645231  1
  Zn  Zn48  1  0.15883606  0.19510785  0.95543819  1
  O  O49  1  0.18227807  0.11070023  0.89399300  1
  C  C50  1  0.12513823  0.20623125  0.60268776  1
  O  O51  1  0.38236464  0.14349217  0.69483578  1
  C  C52  1  0.08272368  0.20371991  0.67471587  1
  C  C53  1  0.09372757  0.20923057  0.52741781  1
  O  O54  1  0.45567270  0.09302372  0.76240988  1
  O  O55  1  0.21431034  0.23660010  0.86016899  1
  O  O56  1  0.23732303  0.19396494  0.54614397  1
  O  O57  1  0.48323447  0.22754561  0.91447001  1
  C  C58  1  0.02088645  0.21558905  0.52926942  1
  C  C59  1  0.24370836  0.03483180  0.95425427  1
  H  H60  1  0.10927573  0.19863763  0.73292266  1
  C  C61  1  0.23418537  0.07773712  0.88859309  1
  O  O62  1  0.05637554  0.17911992  0.95252656  1
  H  H63  1  0.37171988  0.21363446  0.97302168  1
  C  C64  1  0.16437415  0.00537386  0.53057077  1
  C  C65  1  0.45111699  0.15033273  0.99081610  1
  C  C66  1  0.23275651  0.00398057  0.55691221  1
  C  C67  1  0.49722449  0.03078315  0.61417129  1
  H  H68  1  0.34034364  0.00257726  0.91031603  1
  H  H69  1  0.26792129  0.03674308  0.53708705  1
  C  C70  1  0.17845369  0.29383160  0.25017195  1
  H  H71  1  0.11818594  0.36697781  0.02884422  1
  O  O72  1  0.20557521  0.39215184  0.22992437  1
  H  H73  1  0.08064048  0.38886098  0.15158837  1
  H  H74  1  0.07910749  0.36980090  0.45554991  1
  C  C75  1  0.15957529  0.34440149  0.21759260  1
  C  C76  1  0.05455769  0.29928003  0.17708754  1
  C  C77  1  0.25433569  0.38923299  0.29110536  1
  C  C78  1  0.28837064  0.44336061  0.32369655  1
  H  H79  1  0.22916560  0.29052183  0.28416296  1
  H  H80  1  0.29620610  0.35928097  0.27712417  1
  C  C81  1  0.34889300  0.44140662  0.36851438  1
  O  O82  1  0.46433931  0.43339004  0.48352960  1
  C  C83  1  0.09839442  0.34839808  0.17585233  1
  H  H84  1  0.22365371  0.36740791  0.34149592  1
  H  H85  1  0.37610948  0.40312993  0.38215355  1
  O  O86  1  0.04934770  0.47528769  0.22267682  1
  C  C87  1  0.25280378  0.49134467  0.29655816  1
  H  H88  1  0.20599150  0.49161498  0.25369201  1
  C  C89  1  0.44447595  0.48859807  0.44170611  1
  C  C90  1  0.37594670  0.49264135  0.39074596  1
  H  H91  1  0.49017258  0.49900777  0.40351049  1
  O  O92  1  0.14195254  0.37191078  0.59828876  1
  C  C93  1  0.29801300  0.30687713  0.90483464  1
  H  H94  1  0.06309091  0.30096277  0.68499188  1
  C  C95  1  0.39527721  0.45785290  0.69449105  1
  C  C96  1  0.03611839  0.29732716  0.81361649  1
  C  C97  1  0.44426630  0.42947407  0.56161746  1
  H  H98  1  0.21809694  0.34738565  0.67864199  1
  C  C99  1  0.17145749  0.37528955  0.68698492  1
  C  C100  1  0.36656157  0.32773040  0.90636053  1
  C  C101  1  0.46272517  0.37506094  0.68349395  1
  H  H102  1  0.41469039  0.30682201  0.88389038  1
  C  C103  1  0.07458154  0.38206136  0.58457413  1
  C  C104  1  0.04238540  0.32453265  0.88792376  1
  C  C105  1  0.42988920  0.41469092  0.73363494  1
  C  C106  1  0.40317656  0.46374350  0.61243671  1
  C  C107  1  0.37141718  0.37765295  0.94421257  1
  H  H108  1  0.18725996  0.41914973  0.69469514  1
  C  C109  1  0.24533492  0.39077925  0.96227964  1
  C  C110  1  0.12796754  0.35534687  0.75807149  1
  H  H111  1  0.01153679  0.31166807  0.94279269  1
  H  H112  1  0.18761566  0.31998055  0.91697431  1
  C  C113  1  0.13813469  0.38111909  0.83455873  1
  C  C114  1  0.07713939  0.31448560  0.74562915  1
  H  H115  1  0.17922609  0.41170707  0.84208977  1
  H  H116  1  0.43076158  0.40754672  0.79981990  1
  C  C117  1  0.09307627  0.36588351  0.89944683  1
  C  C118  1  0.23873524  0.33748846  0.92900999  1
  H  H119  1  0.04742396  0.40324421  0.70744281  1
  C  C120  1  0.48940765  0.32265430  0.71528433  1
  C  C121  1  0.43985002  0.40882882  0.95760438  1
  O  O122  1  0.43806222  0.45474118  0.99311001  1
  C  C123  1  0.31484017  0.40948181  0.97074164  1
  O  O124  1  0.34448351  0.49242036  0.81773142  1
  C  C125  1  0.47394606  0.38282313  0.60102010  1
  C  C126  1  0.04677895  0.38092678  0.50543099  1
  O  O127  1  0.49696032  0.39226582  0.93008765  1
  O  O128  1  0.47880522  0.30901301  0.78471487  1
  C  C129  1  0.27774898  0.25383801  0.86581745  1
  C  C130  1  0.02662192  0.39641393  0.64465710  1
  C  C131  1  0.35038518  0.49974886  0.74311240  1
  O  O132  1  0.18945115  0.42083416  0.98353761  1
  H  H133  1  0.32613460  0.44895042  0.99903798  1
  H  H134  1  0.07898154  0.43231380  0.99469171  1
  C  C135  1  0.11408046  0.39526257  0.97664645  1
  C  C136  1  0.08324352  0.53695763  0.02434310  1
  H  H137  1  0.12520470  0.72297280  0.39504355  1
  H  H138  1  0.22537559  0.65964661  0.17266624  1
  O  O139  1  0.22954100  0.70266477  0.04540590  1
  C  C140  1  0.13906407  0.72530245  0.33043308  1
  C  C141  1  0.25271113  0.59758037  0.29363719  1
  O  O142  1  0.20050550  0.63858060  0.33406439  1
  C  C143  1  0.18333366  0.73920828  0.17201610  1
  C  C144  1  0.18142277  0.68461966  0.29400477  1
  C  C145  1  0.19820078  0.69020536  0.21093796  1
  H  H146  1  0.13950792  0.54922688  0.03218476  1
  H  H147  1  0.45502870  0.60626460  0.04618542  1
  C  C148  1  0.45968066  0.64685453  0.01802274  1
  H  H149  1  0.37227393  0.58171035  0.38185143  1
  C  C150  1  0.28115154  0.54187103  0.32197054  1
  H  H151  1  0.22405441  0.59134321  0.23534827  1
  H  H152  1  0.29598046  0.62994045  0.28822885  1
  C  C153  1  0.34176299  0.54286173  0.37046218  1
  H  H154  1  0.44397478  0.51341554  0.49644810  1
  C  C155  1  0.20062918  0.74286084  0.08269827  1
  C  C156  1  0.04539447  0.51155480  0.08420616  1
  O  O157  1  0.14036427  0.51477405  0.17579427  1
  C  C158  1  0.08091517  0.50153933  0.16738369  1
  O  O159  1  0.45918067  0.66498617  0.49099779  1
  C  C160  1  0.03466597  0.68503195  0.02173422  1
  O  O161  1  0.34970449  0.58097559  0.96643562  1
  O  O162  1  0.10078002  0.69694470  0.66979933  1
  O  O163  1  0.14306917  0.59490997  0.89322423  1
  Zn  Zn164  1  0.38207238  0.61504086  0.68683144  1
  O  O165  1  0.29935863  0.65224571  0.90534355  1
  C  C166  1  0.07929379  0.58231448  0.88615592  1
  C  C167  1  0.36478645  0.74087745  0.65891174  1
  O  O168  1  0.37043533  0.70449370  0.71247365  1
  C  C169  1  0.34978247  0.63088387  0.94525220  1
  H  H170  1  0.23183605  0.70596336  0.70010358  1
  O  O171  1  0.10478215  0.71322290  0.87717578  1
  Zn  Zn172  1  0.04107117  0.67898376  0.77512040  1
  O  O173  1  0.42003215  0.59953424  0.57050286  1
  O  O174  1  0.04265907  0.59916301  0.82856414  1
  O  O175  1  0.47749587  0.58119316  0.73995169  1
  C  C176  1  0.04684900  0.54820745  0.95234214  1
  Zn  Zn177  1  0.41529215  0.52069873  0.90581137  1
  H  H178  1  0.05104490  0.65172171  0.98256391  1
  C  C179  1  0.40870964  0.66773898  0.96720227  1
  C  C180  1  0.46291450  0.61751539  0.52188401  1
  O  O181  1  0.32536283  0.54257877  0.71330991  1
  C  C182  1  0.41127490  0.72209022  0.93362633  1
  Zn  Zn183  1  0.19449217  0.66560897  0.94004659  1
  C  C184  1  0.23198868  0.73749734  0.64937479  1
  H  H185  1  0.36815077  0.74363137  0.89618857  1
  C  C186  1  0.10381401  0.73180669  0.61129269  1
  C  C187  1  0.04808945  0.73972017  0.99950450  1
  H  H188  1  0.38166235  0.50111173  0.58370284  1
  O  O189  1  0.05625504  0.74813345  0.56496396  1
  Zn  Zn190  1  0.49267801  0.74519635  0.53680009  1
  C  C191  1  0.37974156  0.94281828  0.27830007  1
  C  C192  1  0.12072813  0.77267771  0.28908633  1
  H  H193  1  0.42584349  0.94711920  0.16015364  1
  C  C194  1  0.38984223  0.92400440  0.19973759  1
  O  O195  1  0.48523547  0.78731328  0.42515809  1
  C  C196  1  0.33424816  0.91429386  0.33380269  1
  O  O197  1  0.14053808  0.95974728  0.19358046  1
  H  H198  1  0.46037001  0.88618239  0.35225290  1
  C  C199  1  0.25192788  0.83793191  0.36688909  1
  H  H200  1  0.30049357  0.85036329  0.05956978  1
  C  C201  1  0.08361825  0.81791270  0.33493608  1
  O  O202  1  0.08273551  0.86682943  0.31502358  1
  C  C203  1  0.29733029  0.85035323  0.22408869  1
  O  O204  1  0.25920679  0.85328979  0.44731419  1
  O  O205  1  0.19652536  0.78784312  0.05150092  1
  C  C206  1  0.30046403  0.86799232  0.30480453  1
  C  C207  1  0.14554528  0.78140963  0.21098691  1
  C  C208  1  0.25693511  0.95815345  0.07870522  1
  O  O209  1  0.35670346  0.91932482  0.01544942  1
  H  H210  1  0.26386691  0.81542014  0.20168230  1
  H  H211  1  0.25913961  0.79074417  0.37227760  1
  C  C212  1  0.34970537  0.87110279  0.08104212  1
  H  H213  1  0.39531500  0.84427554  0.06515388  1
  C  C214  1  0.34544181  0.87929319  0.17451377  1
  O  O215  1  0.05446573  0.79981170  0.39859031  1
  H  H216  1  0.25824343  0.92596791  0.12679743  1
  Zn  Zn217  1  0.04424154  0.92198199  0.22125727  1
  H  H218  1  0.19733860  0.84152193  0.34300344  1
  C  C219  1  0.30580348  0.95754349  0.01724409  1
  C  C220  1  0.42327962  0.99143131  0.30983249  1
  H  H221  1  0.32482286  0.92502500  0.39809591  1
  C  C222  1  0.15025557  0.99933548  0.14770068  1
  H  H223  1  0.13283246  0.81968484  0.18434348  1
  H  H224  1  0.03862592  0.82771470  0.03692027  1
  C  C225  1  0.02770869  0.78468063  0.05021497  1
  C  C226  1  0.20264100  0.99834985  0.08084902  1
  H  H227  1  0.13528718  0.79821413  0.49847489  1
  H  H228  1  0.22092015  0.89383393  0.68395781  1
  H  H229  1  0.32042369  0.91810849  0.74893017  1
  H  H230  1  0.40550294  0.85919806  0.82334292  1
  C  C231  1  0.08311405  0.75153605  0.92229418  1
  C  C232  1  0.20888119  0.92732120  0.64393173  1
  C  C233  1  0.30023745  0.80052186  0.56479196  1
  O  O234  1  0.02782878  0.88228421  0.60332645  1
  C  C235  1  0.24714047  0.81203293  0.51381685  1
  C  C236  1  0.44223852  0.87254713  0.77707604  1
  C  C237  1  0.13866917  0.92935168  0.61973140  1
  Zn  Zn238  1  0.03196977  0.85006689  0.81010683  1
  Zn  Zn239  1  0.01345009  0.82339447  0.50649314  1
  C  C240  1  0.01317612  0.96256793  0.86239525  1
  C  C241  1  0.42581101  0.90564781  0.70905975  1
  O  O242  1  0.09736345  0.85573801  0.70051756  1
  O  O243  1  0.42125470  0.76294360  0.63229997  1
  C  C244  1  0.11646199  0.96776029  0.56179461  1
  O  O245  1  0.07427774  0.96224434  0.84152939  1
  C  C246  1  0.34976668  0.91786905  0.69393970  1
  O  O247  1  0.08892872  0.80195028  0.90369125  1
  C  C248  1  0.47360684  0.91996361  0.64808667  1
  H  H249  1  0.32818109  0.88210488  0.65467513  1
  H  H250  1  0.45620655  0.94045767  0.59487335  1
  C  C251  1  0.18335975  0.78819755  0.53210925  1
  C  C252  1  0.25763643  0.96446511  0.61459714  1
  C  C253  1  0.08551825  0.88638553  0.64063027  1
  O  O254  1  0.32379181  0.96368334  0.63650070  1
  H  H255  1  0.06277037  0.96686690  0.53554826  1
  O  O256  1  0.47224697  0.81312331  0.92248443  1
  C  C257  1  0.17481941  0.75184012  0.60018695  1
  C  C258  1  0.29716679  0.75889017  0.62823218  1
  C  C259  1  0.46728491  0.75572772  0.95383541  1
  C  C260  1  0.29749642  0.99718939  0.95416793  1
  H  H261  1  0.34895154  0.82410568  0.55165311  1
  C  C262  1  0.97814392  0.22266242  0.45424266  1
  C  C263  1  0.64233632  0.16496420  0.43838689  1
  C  C264  1  0.67717230  0.21606461  0.44026830  1
  C  C265  1  0.85536380  0.11702648  0.33015366  1
  H  H266  1  0.92262888  0.07702685  0.24250098  1
  C  C267  1  0.89181584  0.07228179  0.29758415  1
  C  C268  1  0.58604838  0.08514779  0.20125182  1
  H  H269  1  0.78010630  0.15241300  0.41372310  1
  O  O270  1  0.82602114  0.21256684  0.30841405  1
  C  C271  1  0.71140053  0.11178163  0.17944858  1
  C  C272  1  0.81332343  0.11429543  0.39849532  1
  O  O273  1  0.90198014  0.17534434  0.22739254  1
  H  H274  1  0.70015115  0.17512042  0.29480231  1
  C  C275  1  0.64874489  0.11593649  0.22050856  1
  H  H276  1  0.82570051  0.09272050  0.09914565  1
  H  H277  1  0.53802896  0.08798585  0.23512555  1
  C  C278  1  0.64722715  0.15589882  0.29275442  1
  C  C279  1  0.78715402  0.06235396  0.07549599  1
  O  O280  1  0.62637896  0.13439312  0.37056338  1
  H  H281  1  0.60870530  0.19090788  0.28576328  1
  C  C282  1  0.86055731  0.17155984  0.28631819  1
  C  C283  1  0.80252725  0.06457041  0.44093466  1
  H  H284  1  0.65433580  0.02625956  0.02668974  1
  C  C285  1  0.53041131  0.01161647  0.11131255  1
  H  H286  1  0.75831337  0.13271739  0.19903338  1
  C  C287  1  0.58960973  0.04773442  0.13536485  1
  H  H288  1  0.89793578  0.11722774  0.04285301  1
  C  C289  1  0.88509270  0.02363172  0.34148724  1
  C  C290  1  0.71868606  0.07359182  0.11563947  1
  H  H291  1  0.69803927  0.22910004  0.38016563  1
  O  O292  1  0.78347316  0.19166552  0.09070494  1
  C  C293  1  0.65830699  0.04099584  0.08957836  1
  Zn  Zn294  1  0.93305380  0.24103399  0.15531259  1
  C  C295  1  0.84305760  0.02147659  0.40917168  1
  O  O296  1  0.87631667  0.23372301  0.03841381  1
  O  O297  1  0.80012529  0.03780043  0.00367294  1
  H  H298  1  0.53371317  0.00509730  0.04482939  1
  C  C299  1  0.81499232  0.21451536  0.03687267  1
  H  H300  1  0.52654067  0.08855881  0.02727732  1
  H  H301  1  0.51791448  0.02448642  0.41638180  1
  Zn  Zn302  1  0.66620810  0.17922043  0.00565684  1
  O  O303  1  0.91508745  0.23908374  0.45511051  1
  O  O304  1  0.62475756  0.23586238  0.10212433  1
  Zn  Zn305  1  0.56111008  0.09871369  0.80293636  1
  C  C306  1  0.74732354  0.15463861  0.92152842  1
  H  H307  1  0.51823770  0.01249207  0.67134760  1
  C  C308  1  0.79896923  0.05821936  0.81340924  1
  C  C309  1  0.62250021  0.14812850  0.51509185  1
  O  O310  1  0.55340137  0.15490407  0.91022881  1
  O  O311  1  0.59979130  0.10128265  0.67150213  1
  C  C312  1  0.79115794  0.00659805  0.75907480  1
  C  C313  1  0.77128108  0.01983582  0.67539703  1
  C  C314  1  0.52202668  0.00959212  0.54017305  1
  O  O315  1  0.59123035  0.18033209  0.72177629  1
  O  O316  1  0.54662171  0.02209511  0.91368730  1
  H  H317  1  0.77004988  0.05176664  0.87017545  1
  C  C318  1  0.63495799  0.17953153  0.58589256  1
  H  H319  1  0.85267294  0.07314952  0.83011403  1
  H  H320  1  0.77207979  0.06428395  0.65574273  1
  H  H321  1  0.59282306  0.10886698  0.52302183  1
  C  C322  1  0.60424678  0.15195609  0.66265686  1
  C  C323  1  0.74958910  0.15481760  0.82188804  1
  C  C324  1  0.76363522  0.21236096  0.96474706  1
  O  O325  1  0.77328710  0.11630582  0.77611135  1
  C  C326  1  0.98242161  0.01168351  0.90657996  1
  C  C327  1  0.66892829  0.23130351  0.58519526  1
  H  H328  1  0.71671847  0.21603051  0.71937789  1
  Zn  Zn329  1  0.82418584  0.21677439  0.84979829  1
  C  C330  1  0.73117248  0.21386385  0.78434430  1
  H  H331  1  0.77537933  0.11849349  0.95075726  1
  C  C332  1  0.69320034  0.24741064  0.51065937  1
  H  H333  1  0.96698002  0.23804853  0.87529626  1
  O  O334  1  0.61736339  0.01276452  0.81510257  1
  C  C335  1  0.98128255  0.22011414  0.60154960  1
  O  O336  1  0.96999153  0.21651183  0.76526548  1
  C  C337  1  0.98735231  0.09702083  0.96988712  1
  H  H338  1  0.92155909  0.22345208  0.60128580  1
  C  C339  1  0.91232118  0.00223008  0.93251834  1
  C  C340  1  0.87728747  0.04096173  0.97795034  1
  C  C341  1  0.50060719  0.17966028  0.93542099  1
  O  O342  1  0.75944065  0.05539841  0.50383434  1
  C  C343  1  0.91892694  0.08585312  0.99879581  1
  Zn  Zn344  1  0.95393201  0.44242142  0.27124109  1
  C  C345  1  0.84144997  0.36580142  0.19684407  1
  C  C346  1  0.67242371  0.32657952  0.09575394  1
  O  O347  1  0.88471098  0.37117149  0.40101774  1
  H  H348  1  0.95363480  0.47382743  0.12707808  1
  C  C349  1  0.97793496  0.49394101  0.07202133  1
  O  O350  1  0.56136231  0.29882600  0.04052853  1
  O  O351  1  0.85773314  0.32500331  0.23520630  1
  H  H352  1  0.74290328  0.27886102  0.17792238  1
  C  C353  1  0.99414281  0.30555965  0.12085012  1
  Zn  Zn354  1  0.85457399  0.28728626  0.37035332  1
  C  C355  1  0.94787651  0.37545495  0.40857050  1
  C  C356  1  0.73047428  0.31864787  0.14551389  1
  O  O357  1  0.74998721  0.31096738  0.42909723  1
  O  O358  1  0.87874280  0.40970620  0.19324673  1
  C  C359  1  0.77627464  0.36293985  0.14505369  1
  C  C360  1  0.61577778  0.28444686  0.07948247  1
  H  H361  1  0.79999969  0.44735836  0.11563198  1
  C  C362  1  0.70007006  0.42211175  0.06500605  1
  H  H363  1  0.60297250  0.38338994  0.03014370  1
  C  C364  1  0.76280443  0.41247112  0.10741388  1
  C  C365  1  0.65482293  0.37648867  0.05787412  1
  O  O366  1  0.98206332  0.33199849  0.06148718  1
  H  H367  1  0.85546602  0.47631589  0.32175717  1
  O  O368  1  0.68118011  0.47169436  0.03394786  1
  O  O369  1  0.98940331  0.37570212  0.35332698  1
  C  C370  1  0.97673528  0.38729690  0.49049218  1
  C  C371  1  0.90366702  0.42001522  0.69519279  1
  C  C372  1  0.72964920  0.26374065  0.83063185  1
  H  H373  1  0.74865944  0.30665890  0.94974102  1
  H  H374  1  0.80336108  0.45995765  0.90274952  1
  O  O375  1  0.83919208  0.42739240  0.67770064  1
  O  O376  1  0.60702679  0.46370305  0.66598310  1
  C  C377  1  0.95471344  0.40357173  0.62892927  1
  H  H378  1  0.86986409  0.40324392  0.53815288  1
  C  C379  1  0.92740599  0.39760539  0.55277660  1
  O  O380  1  0.92218157  0.43019742  0.76317445  1
  C  C381  1  0.63535497  0.47472141  0.60422847  1
  O  O382  1  0.68670977  0.32689526  0.72359916  1
  O  O383  1  0.69483230  0.45076848  0.59085786  1
  C  C384  1  0.75709384  0.26696337  0.91506485  1
  H  H385  1  0.50415512  0.35217745  0.56570983  1
  O  O386  1  0.64459929  0.32508652  0.84822509  1
  C  C387  1  0.68684505  0.30992152  0.79717786  1
  O  O388  1  0.51905855  0.28588301  0.65897654  1
  H  H389  1  0.88609045  0.46302148  0.84754906  1
  O  O390  1  0.75984128  0.32780619  0.55722599  1
  Zn  Zn391  1  0.73484896  0.38668331  0.65898417  1
  Zn  Zn392  1  0.54241767  0.30774843  0.90949487  1
  O  O393  1  0.87721952  0.47819327  0.98171436  1
  H  H394  1  0.67626852  0.25330190  0.64332448  1
  C  C395  1  0.98765088  0.25310945  0.81281833  1
  C  C396  1  0.85087385  0.48694399  0.89365113  1
  H  H397  1  0.53829104  0.25670633  0.69255750  1
  C  C398  1  0.94016695  0.49752577  0.99829499  1
  C  C399  1  0.73498101  0.30079742  0.50083534  1
  C  C400  1  0.99753083  0.67050207  0.09213349  1
  C  C401  1  0.63137462  0.57389156  0.42215864  1
  C  C402  1  0.77230565  0.53907790  0.11222717  1
  O  O403  1  0.89003123  0.50776309  0.32346198  1
  H  H404  1  0.67540821  0.52501117  0.18367198  1
  H  H405  1  0.85648509  0.58180592  0.32067561  1
  C  C406  1  0.55866875  0.65721748  0.10521421  1
  H  H407  1  0.76407616  0.54991500  0.38760323  1
  C  C408  1  0.84525324  0.55244241  0.26873459  1
  H  H409  1  0.95409180  0.62833220  0.23386983  1
  C  C410  1  0.84060854  0.56261975  0.11693667  1
  C  C411  1  0.87633647  0.57334037  0.18945398  1
  C  C412  1  0.94822076  0.59798768  0.18751255  1
  C  C413  1  0.72820539  0.54181651  0.33717242  1
  H  H414  1  0.69943988  0.50251491  0.34528037  1
  C  C415  1  0.76705701  0.54134964  0.25768963  1
  H  H416  1  0.94573016  0.70596651  0.19988993  1
  O  O417  1  0.66320019  0.58428337  0.35227139  1
  H  H418  1  0.54623063  0.63461510  0.41064759  1
  C  C419  1  0.73170619  0.53325939  0.18629864  1
  C  C420  1  0.56925166  0.60256633  0.44494761  1
  C  C421  1  0.51758962  0.73556653  0.00554008  1
  C  C422  1  0.73072313  0.52252050  0.03680629  1
  H  H423  1  0.87065367  0.56672104  0.06143924  1
  O  O424  1  0.60068011  0.68689031  0.14458144  1
  O  O425  1  0.54653199  0.60889861  0.12649658  1
  H  H426  1  0.99102845  0.56624100  0.19087199  1
  C  C427  1  0.97698912  0.71408368  0.14458296  1
  C  C428  1  0.51463615  0.68262690  0.03885814  1
  H  H429  1  0.68253243  0.54862544  0.02628560  1
  O  O430  1  0.98325561  0.61875362  0.10522354  1
  O  O431  1  0.55382670  0.74838143  0.33409872  1
  H  H432  1  0.77857546  0.72455876  0.48631565  1
  H  H433  1  0.69335059  0.50226605  0.46371142  1
  C  C434  1  0.64662990  0.52974884  0.47421437  1
  H  H435  1  0.59690766  0.63376768  0.92584682  1
  C  C436  1  0.60319886  0.65545772  0.86629633  1
  C  C437  1  0.76620974  0.58734121  0.64182454  1
  H  H438  1  0.82277444  0.50380846  0.73089576  1
  H  H439  1  0.73802457  0.66670921  0.75289787  1
  C  C440  1  0.51165367  0.59320745  0.80208652  1
  O  O441  1  0.94110666  0.70801647  0.80896522  1
  C  C442  1  0.84557109  0.68888756  0.67035944  1
  C  C443  1  0.83131479  0.54138123  0.85242795  1
  C  C444  1  0.65491373  0.69686935  0.86607336  1
  C  C445  1  0.61145020  0.71770441  0.73133382  1
  C  C446  1  0.76113490  0.63286708  0.78144485  1
  H  H447  1  0.70867718  0.58044537  0.63158891  1
  H  H448  1  0.95993165  0.53533862  0.88099423  1
  H  H449  1  0.83691339  0.59278640  0.96052963  1
  H  H450  1  0.51015410  0.52863839  0.61022694  1
  C  C451  1  0.78376656  0.63576446  0.86411872  1
  O  O452  1  0.69970103  0.70565313  0.93308366  1
  C  C453  1  0.80484582  0.68292413  0.59968752  1
  C  C454  1  0.76857546  0.68609864  0.92256139  1
  O  O455  1  0.76576349  0.63857144  0.57900696  1
  C  C456  1  0.81231844  0.54063904  0.77042951  1
  C  C457  1  0.78196566  0.58837096  0.73213759  1
  H  H458  1  0.79199033  0.72262088  0.89039302  1
  H  H459  1  0.85218370  0.65580743  0.71775840  1
  C  C460  1  0.54282765  0.54033063  0.55735731  1
  C  C461  1  0.56253917  0.64063844  0.79921385  1
  H  H462  1  0.53850046  0.66348449  0.67197302  1
  C  C463  1  0.92198691  0.74877077  0.76729350  1
  C  C464  1  0.81932591  0.59096646  0.89911901  1
  C  C465  1  0.56710716  0.67150793  0.72884944  1
  H  H466  1  0.79327607  0.55218120  0.61063060  1
  C  C467  1  0.65242848  0.73230206  0.79938709  1
  C  C468  1  0.80621342  0.72668003  0.54177842  1
  C  C469  1  0.98042448  0.52652776  0.93977047  1
  C  C470  1  0.60778062  0.51853976  0.54284713  1
  C  C471  1  0.88122556  0.73724740  0.68973522  1
  O  O472  1  0.58735189  0.73022158  0.59232400  1
  C  C473  1  0.52702632  0.58588329  0.50794838  1
  C  C474  1  0.62029013  0.74918408  0.65372921  1
  O  O475  1  0.50078584  0.56655750  0.86543601  1
  H  H476  1  0.79500531  0.68159234  0.98381965  1
  H  H477  1  0.76300118  0.52121134  0.98266680  1
  C  C478  1  0.85743030  0.81331183  0.48912883  1
  C  C479  1  0.54118856  0.94675271  0.31253898  1
  O  O480  1  0.83260936  0.80605871  0.42012259  1
  O  O481  1  0.76805183  0.93991196  0.25430950  1
  O  O482  1  0.76387177  0.85372556  0.28742479  1
  C  C483  1  0.99126001  0.76906473  0.12085579  1
  C  C484  1  0.63008664  0.85419244  0.33572229  1
  C  C485  1  0.61363278  0.95006081  0.29920538  1
  C  C486  1  0.55816533  0.84770231  0.35044845  1
  C  C487  1  0.65802441  0.90452778  0.30994056  1
  C  C488  1  0.53081236  0.78953849  0.37063844  1
  C  C489  1  0.97046763  0.81549290  0.17605977  1
  O  O490  1  0.93042367  0.80237005  0.23431686  1
  H  H491  1  0.55742333  0.76975407  0.02533007  1
  Zn  Zn492  1  0.86649961  0.85169643  0.31283506  1
  H  H493  1  0.66199177  0.81641187  0.33566614  1
  O  O494  1  0.96568202  0.98423735  0.25560544  1
  C  C495  1  0.73405213  0.90135678  0.28064835  1
  O  O496  1  0.55625955  0.84514104  0.12021895  1
  Zn  Zn497  1  0.58588213  0.75593506  0.21264058  1
  H  H498  1  0.63391616  0.98996134  0.27585125  1
  H  H499  1  0.84202037  0.98055935  0.44367784  1
  O  O500  1  0.65119439  0.79701061  0.11733674  1
  C  C501  1  0.92852024  0.97518819  0.31845961  1
  O  O502  1  0.92551550  0.93059771  0.35422206  1
  C  C503  1  0.61215542  0.83454421  0.08755776  1
  C  C504  1  0.51823943  0.89442041  0.34127259  1
  H  H505  1  0.53188090  0.96648640  0.13813115  1
  O  O506  1  0.98788747  0.86333667  0.15608496  1
  C  C507  1  0.62879017  0.86441558  0.00685250  1
  H  H508  1  0.55022526  0.93060585  0.01475034  1
  O  O509  1  0.50533591  0.99260244  0.30045568  1
  Zn  Zn510  1  0.74496945  0.99275080  0.15426206  1
  H  H511  1  0.77099051  0.96203391  0.48904584  1
  O  O512  1  0.75115229  0.83136133  0.84264950  1
  C  C513  1  0.70457864  0.85996491  0.88378870  1
  O  O514  1  0.93675647  0.79774661  0.78407312  1
  C  C515  1  0.78809495  0.95204869  0.78669201  1
  H  H516  1  0.72888499  0.83103071  0.71327252  1
  C  C517  1  0.52341678  0.82244584  0.86294990  1
  H  H518  1  0.82392628  0.83057601  0.75124285  1
  H  H519  1  0.79695116  0.94187709  0.85019788  1
  C  C520  1  0.67120219  0.91120829  0.86836794  1
  H  H521  1  0.91014751  0.81532441  0.64770116  1
  H  H522  1  0.76438114  0.88274491  0.60130784  1
  O  O523  1  0.65872652  0.78858034  0.65302514  1
  H  H524  1  0.63234012  0.91077035  0.57741592  1
  C  C525  1  0.61972327  0.93910274  0.91182289  1
  H  H526  1  0.68613070  0.93095045  0.81081798  1
  C  C527  1  0.76825072  0.84986509  0.75567933  1
  C  C528  1  0.77040564  0.91850483  0.64248448  1
  H  H529  1  0.68477498  0.76895629  0.79405389  1
  C  C530  1  0.77747953  0.90867971  0.72543514  1
  C  C531  1  0.59658944  0.93980808  0.61139340  1
  C  C532  1  0.59696723  0.91332260  0.98459922  1
  H  H533  1  0.88346694  0.96872183  0.91010004  1
  H  H534  1  0.57223293  0.82801466  0.89797179  1
  H  H535  1  0.53124236  0.78193580  0.83439348  1
  C  C536  1  0.51477290  0.86497533  0.79266433  1
  C  C537  1  0.87971267  0.77966667  0.63147559  1
  C  C538  1  0.76487508  0.97625717  0.62005142  1
  H  H539  1  0.62813861  0.96617401  0.65166812  1
  H  H540  1  0.62360072  0.87111721  0.74564413  1
  C  C541  1  0.56785828  0.87837609  0.73689671  1
  C  C542  1  0.54605727  0.90964690  0.66784337  1
  O  O543  1  0.97373949  0.92003653  0.84746085  1
  O  O544  1  0.56955446  0.96848652  0.53330138  1
  C  C545  1  0.68137810  0.84094035  0.96017694  1
  C  C546  1  0.84780289  0.77138812  0.55717411  1
  H  H547  1  0.69180568  0.99616206  0.52398145  1
  C  C548  1  0.59184492  0.99413811  0.87764264  1
  C  C549  1  0.74808753  0.99346254  0.53151690  1
  O  O550  1  0.90351638  0.84939354  0.50314055  1
  H  H551  1  0.69797451  0.80072300  0.98652069  1
