# generated using pymatgen
data_ZnH4C13NO6
_symmetry_space_group_name_H-M   'P 1'
_cell_length_a   7.21886112
_cell_length_b   21.28542408
_cell_length_c   38.34442699
_cell_angle_alpha   90.00000000
_cell_angle_beta   90.00000000
_cell_angle_gamma   90.00000000
_symmetry_Int_Tables_number   1
_chemical_formula_structural   ZnH4C13NO6
_chemical_formula_sum   'Zn16 H64 C208 N16 O96'
_cell_volume   5891.87122698
_cell_formula_units_Z   16
loop_
 _symmetry_equiv_pos_site_id
 _symmetry_equiv_pos_as_xyz
  1  'x, y, z'
loop_
 _atom_site_type_symbol
 _atom_site_label
 _atom_site_symmetry_multiplicity
 _atom_site_fract_x
 _atom_site_fract_y
 _atom_site_fract_z
 _atom_site_occupancy
  C  C0  1  0.25078347  0.00465002  0.18752239  1
  Zn  Zn1  1  0.31629610  0.20707024  0.19939650  1
  C  C2  1  0.17666416  0.40127563  0.17835786  1
  C  C3  1  0.18296245  0.33294646  0.19155069  1
  C  C4  1  0.15570635  0.41690018  0.14333233  1
  O  O5  1  0.11658051  0.31655967  0.22072309  1
  O  O6  1  0.25297823  0.29221258  0.17261323  1
  C  C7  1  0.27665863  0.07230595  0.19929875  1
  C  C8  1  0.42628028  0.01801990  0.04069200  1
  O  O9  1  0.23171937  0.11858852  0.18131120  1
  O  O10  1  0.37385563  0.07705930  0.22662403  1
  C  C11  1  0.21228686  0.44151169  0.20611084  1
  C  C12  1  0.13979981  0.48285522  0.13585871  1
  H  H13  1  0.23730933  0.42316426  0.23198255  1
  H  H14  1  0.14854780  0.38184996  0.12289146  1
  H  H15  1  0.05685996  0.04026781  0.15004949  1
  C  C16  1  0.38892771  0.05129340  0.00602773  1
  H  H17  1  0.18351982  0.45424309  0.02474821  1
  O  O18  1  0.00503849  0.41512547  0.06562884  1
  C  C19  1  0.02459284  0.46828331  0.07392083  1
  C  C20  1  0.29662374  0.49089271  0.01488950  1
  C  C21  1  0.48045902  0.02364501  0.07414193  1
  C  C22  1  0.22823658  0.19742670  0.28537020  1
  Zn  Zn23  1  0.33798012  0.05966832  0.28224107  1
  O  O24  1  0.19507557  0.14235942  0.29374415  1
  C  C25  1  0.30657084  0.42252313  0.30956874  1
  C  C26  1  0.25906210  0.30913514  0.29764376  1
  C  C27  1  0.21744374  0.25037113  0.31157514  1
  C  C28  1  0.25025417  0.35636617  0.32244396  1
  O  O29  1  0.30135719  0.21227947  0.25628602  1
  H  H30  1  0.31667685  0.31586505  0.27138570  1
  O  O31  1  0.03235518  0.17555534  0.40522324  1
  O  O32  1  0.23853822  0.47070557  0.32310489  1
  C  C33  1  0.15932602  0.24048352  0.34567664  1
  C  C34  1  0.49342671  0.17874431  0.48759225  1
  C  C35  1  0.19587237  0.35190356  0.35641164  1
  C  C36  1  0.14642586  0.29097191  0.36927212  1
  H  H37  1  0.17905303  0.39357175  0.37201886  1
  H  H38  1  0.12947197  0.19111107  0.35603739  1
  O  O39  1  0.43340059  0.42505176  0.28730952  1
  C  C40  1  0.44848864  0.24487941  0.48329069  1
  C  C41  1  0.05078457  0.22724622  0.41761537  1
  N  N42  1  0.09377401  0.28595703  0.40499833  1
  O  O43  1  0.49734778  0.31436042  0.43364262  1
  O  O44  1  0.07442468  0.39223029  0.41778399  1
  C  C45  1  0.04776553  0.33914483  0.42530137  1
  H  H46  1  0.12724428  0.09783510  0.62647381  1
  O  O47  1  0.03726304  0.02503514  0.67565671  1
  O  O48  1  0.04622561  0.36204157  0.68885091  1
  C  C49  1  0.11654768  0.25642868  0.64874574  1
  C  C50  1  0.29782399  0.15063241  0.58029224  1
  C  C51  1  0.23029981  0.26110760  0.57527671  1
  N  N52  1  0.23424211  0.20562464  0.59510806  1
  H  H53  1  0.17990786  0.30278245  0.64206382  1
  C  C54  1  0.37268738  0.17519253  0.54503745  1
  H  H55  1  0.33859043  0.32317233  0.51046484  1
  C  C56  1  0.32520591  0.24159742  0.54258059  1
  C  C57  1  0.14502551  0.20267123  0.62817949  1
  C  C58  1  0.44916377  0.14088333  0.51713904  1
  O  O59  1  0.16089141  0.31591764  0.58375067  1
  O  O60  1  0.30844009  0.09934265  0.59208223  1
  C  C61  1  0.36589564  0.27543350  0.51150655  1
  C  C62  1  0.09845634  0.14244649  0.64193234  1
  H  H63  1  0.49093885  0.09071697  0.51478123  1
  O  O64  1  0.46331119  0.17571770  0.71177291  1
  C  C65  1  0.00459616  0.13693566  0.67344375  1
  C  C66  1  0.02502274  0.25084380  0.68036066  1
  H  H67  1  0.02238824  0.30382106  0.58491794  1
  C  C68  1  0.00699522  0.31145721  0.70184386  1
  O  O69  1  0.38044986  0.03011075  0.74495842  1
  H  H70  1  0.47980328  0.29574475  0.68751839  1
  H  H71  1  0.38063336  0.40114832  0.74832774  1
  C  C72  1  0.13760649  0.48880292  0.92623981  1
  O  O73  1  0.12357392  0.43182179  0.92203860  1
  C  C74  1  0.41974035  0.47752345  0.78299034  1
  C  C75  1  0.03484996  0.49231906  0.85224986  1
  O  O76  1  0.03438353  0.22414108  0.81237075  1
  Zn  Zn77  1  0.06866256  0.30932964  0.77905565  1
  C  C78  1  0.42590136  0.41502316  0.77464036  1
  C  C79  1  0.21656145  0.03960315  0.92024837  1
  C  C80  1  0.10949316  0.03777723  0.86286559  1
  C  C81  1  0.46370865  0.49726157  0.81651407  1
  O  O82  1  0.36555549  0.29239716  0.76147137  1
  O  O83  1  0.23798555  0.09448494  0.92603687  1
  C  C84  1  0.09970815  0.10065451  0.85055435  1
  C  C85  1  0.45739361  0.03364643  0.77406677  1
  H  H86  1  0.08662654  0.44480154  0.85916016  1
  H  H87  1  0.15300352  0.13984339  0.86595083  1
  C  C88  1  0.47818124  0.30270194  0.78468104  1
  C  C89  1  0.48775624  0.37033468  0.79864572  1
  C  C90  1  0.01772445  0.11183668  0.81823647  1
  C  C91  1  0.31596061  0.00248251  0.98192160  1
  N  N92  1  0.16596255  0.01011209  0.89180461  1
  C  C93  1  0.39650333  0.97295852  0.01228755  1
  O  O94  1  0.25810134  0.78489219  0.20179753  1
  C  C95  1  0.02206289  0.56604863  0.09619845  1
  O  O96  1  0.27091133  0.61300132  0.21068488  1
  C  C97  1  0.29113123  0.57136607  0.01852241  1
  C  C98  1  0.08112020  0.93628542  0.14811320  1
  H  H99  1  0.13484035  0.83487837  0.15395578  1
  C  C100  1  0.26202386  0.55766518  0.22023078  1
  C  C101  1  0.32342197  0.95460189  0.20482025  1
  O  O102  1  0.44832880  0.83861293  0.23512756  1
  C  C103  1  0.27342684  0.89376644  0.19255129  1
  C  C104  1  0.15837163  0.88221430  0.16422986  1
  C  C105  1  0.16799571  0.52633964  0.16291735  1
  C  C106  1  0.20965864  0.50414258  0.19603660  1
  C  C107  1  0.33730963  0.83478793  0.21047938  1
  H  H108  1  0.16519174  0.57612089  0.15733450  1
  C  C109  1  0.38848255  0.52976319  0.04282894  1
  H  H110  1  0.18660826  0.60187333  0.03058788  1
  N  N111  1  0.06189257  0.50267836  0.10349794  1
  Zn  Zn112  1  0.18877549  0.70376142  0.22937347  1
  H  H113  1  0.40888792  0.95648997  0.22779562  1
  C  C114  1  0.47886737  0.53148498  0.07356965  1
  O  O115  1  0.05030230  0.61539829  0.10934273  1
  C  C116  1  0.13097151  0.99802279  0.15877187  1
  Zn  Zn117  1  0.18045630  0.55711008  0.29928192  1
  C  C118  1  0.26511152  0.94031375  0.31809049  1
  C  C119  1  0.30064253  0.69912928  0.30653766  1
  O  O120  1  0.36575573  0.70565481  0.27704007  1
  C  C121  1  0.33409626  0.78323252  0.49900328  1
  C  C122  1  0.38477763  0.67838036  0.47078642  1
  C  C123  1  0.30108262  0.81814098  0.31335623  1
  H  H124  1  0.35228049  0.82283848  0.28726960  1
  C  C125  1  0.13319562  0.80254981  0.37826400  1
  O  O126  1  0.13758951  0.97698293  0.32965438  1
  O  O127  1  0.25678610  0.64698733  0.31837410  1
  C  C128  1  0.25794966  0.75876617  0.32589653  1
  O  O129  1  0.35699328  0.95408671  0.29177001  1
  C  C130  1  0.39054302  0.74567653  0.46983465  1
  C  C131  1  0.24987568  0.87293492  0.33147206  1
  H  H132  1  0.14009231  0.69975919  0.36589476  1
  C  C133  1  0.16880718  0.86340492  0.36394498  1
  C  C134  1  0.17204145  0.74908965  0.35803248  1
  C  C135  1  0.31415119  0.64588419  0.49911618  1
  C  C136  1  0.45267978  0.65757017  0.43539154  1
  H  H137  1  0.12913211  0.90240745  0.37908786  1
  C  C138  1  0.47609426  0.76832542  0.43503224  1
  N  N139  1  0.06280488  0.80271018  0.41310146  1
  O  O140  1  0.47180811  0.82079061  0.42513203  1
  O  O141  1  0.06703297  0.90964239  0.43134856  1
  O  O142  1  0.42527645  0.60528116  0.42493167  1
  C  C143  1  0.02377060  0.85544518  0.43313435  1
  O  O144  1  0.29539182  0.54013045  0.25005537  1
  O  O145  1  0.16076188  0.82235454  0.57077823  1
  Zn  Zn146  1  0.05798476  0.94128496  0.70787022  1
  C  C147  1  0.14295251  0.65866459  0.55846026  1
  H  H148  1  0.39599029  0.78446515  0.70258735  1
  N  N149  1  0.11253160  0.71333422  0.57767597  1
  C  C150  1  0.24589141  0.68254387  0.52546213  1
  Zn  Zn151  1  0.16741168  0.63856468  0.73592026  1
  C  C152  1  0.44845097  0.78384641  0.67454392  1
  C  C153  1  0.16073624  0.76901947  0.56117727  1
  O  O154  1  0.10220055  0.60514472  0.56421500  1
  C  C155  1  0.25811065  0.74976134  0.52725903  1
  C  C156  1  0.03919149  0.70809507  0.61195804  1
  O  O157  1  0.34384819  0.50742268  0.72240881  1
  O  O158  1  0.38359613  0.67333187  0.70387931  1
  O  O159  1  0.34621198  0.90111258  0.70208311  1
  C  C160  1  0.48045256  0.84023200  0.65684023  1
  O  O161  1  0.44219347  0.61570333  0.65798476  1
  C  C162  1  0.44138454  0.66702489  0.67253222  1
  C  C163  1  0.43642012  0.90373926  0.67431172  1
  C  C164  1  0.48288001  0.72770936  0.65659040  1
  C  C165  1  0.02801197  0.76609808  0.63026100  1
  H  H166  1  0.07297107  0.80932318  0.62026906  1
  H  H167  1  0.34539450  0.83639247  0.50071562  1
  H  H168  1  0.00285701  0.60374639  0.61283230  1
  H  H169  1  0.30953799  0.59577067  0.50049661  1
  C  C170  1  0.46695140  0.98149413  0.79920137  1
  C  C171  1  0.16823047  0.53784041  0.95396476  1
  N  N172  1  0.08405141  0.54200509  0.90760139  1
  Zn  Zn173  1  0.17740681  0.66575923  0.84238325  1
  C  C174  1  0.24954632  0.98791407  0.94827909  1
  O  O175  1  0.35162453  0.57856797  0.76486874  1
  C  C176  1  0.02842794  0.54259547  0.87497784  1
  C  C177  1  0.20948824  0.92309017  0.94282171  1
  O  O178  1  0.26197072  0.80000571  0.77933473  1
  C  C179  1  0.11947043  0.59415034  0.93241174  1
  H  H180  1  0.34937489  0.91313230  0.76367882  1
  C  C181  1  0.41758242  0.87576983  0.81533138  1
  C  C182  1  0.24185984  0.53428579  0.98660696  1
  C  C183  1  0.33358635  0.81290797  0.80873404  1
  C  C184  1  0.40952965  0.92201043  0.78944649  1
  O  O185  1  0.13294109  0.64882521  0.93103335  1
  C  C186  1  0.36029242  0.52270479  0.75420464  1
  C  C187  1  0.48858674  0.88518067  0.84829209  1
  O  O188  1  0.17199044  0.87018704  0.93742225  1
  O  O189  1  0.34138833  0.77278590  0.83221428  1
  H  H190  1  0.06256194  0.93753219  0.85273698  1
  O  O191  1  0.01330177  0.69529531  0.76507902  1
  C  C192  1  0.04679535  0.98529081  0.84240043  1
  H  H193  1  0.45857772  0.54699512  0.82348445  1
  C  C194  1  0.67797650  0.10379101  0.16558915  1
  O  O195  1  0.72194249  0.39693576  0.21085211  1
  C  C196  1  0.81744133  0.06567064  0.22026467  1
  C  C197  1  0.73806055  0.18227397  0.20827243  1
  Zn  Zn198  1  0.82168044  0.31032653  0.23306129  1
  O  O199  1  0.83914918  0.20378946  0.23272696  1
  H  H200  1  0.86053148  0.07554528  0.24691055  1
  H  H201  1  0.66367498  0.45303683  0.15600691  1
  C  C202  1  0.74053370  0.11287903  0.19940829  1
  N  N203  1  0.57940049  0.03316618  0.11894100  1
  C  C204  1  0.78919407  0.44554303  0.22331901  1
  H  H205  1  0.64529061  0.14495867  0.14807568  1
  C  C206  1  0.80075164  0.00565253  0.20602401  1
  C  C207  1  0.65071235  0.04136382  0.15264130  1
  O  O208  1  0.63126108  0.21962924  0.19260623  1
  O  O209  1  0.60771507  0.43301295  0.10436597  1
  C  C210  1  0.53498564  0.08106395  0.09425606  1
  C  C211  1  0.70086084  0.49744724  0.16891349  1
  C  C212  1  0.57332367  0.48722780  0.09822441  1
  O  O213  1  0.95167173  0.00832855  0.09302144  1
  O  O214  1  0.56391736  0.13671042  0.08973992  1
  H  H215  1  0.94367414  0.39198008  0.49397431  1
  O  O216  1  0.63430932  0.07149034  0.29552143  1
  C  C217  1  0.62904636  0.14280393  0.38073467  1
  C  C218  1  0.70307350  0.30671338  0.31538486  1
  O  O219  1  0.70067100  0.29337884  0.28420354  1
  C  C220  1  0.57624434  0.15393990  0.45404695  1
  O  O221  1  0.85467184  0.44892917  0.25404159  1
  O  O222  1  0.72304596  0.36102840  0.32665977  1
  C  C223  1  0.63774631  0.25796375  0.37621471  1
  H  H224  1  0.63907107  0.30698710  0.38679490  1
  C  C225  1  0.66444873  0.25187726  0.34005736  1
  C  C226  1  0.93107156  0.20200179  0.48100230  1
  C  C227  1  0.67177041  0.07672405  0.32696231  1
  O  O228  1  0.63473065  0.10272300  0.44863538  1
  C  C229  1  0.65685990  0.14073858  0.34428210  1
  H  H230  1  0.70956335  0.19298686  0.29591830  1
  Zn  Zn231  1  0.70490768  0.45196479  0.30026514  1
  C  C232  1  0.68244349  0.19473560  0.32366561  1
  C  C233  1  0.61345370  0.20384637  0.39673337  1
  O  O234  1  0.71662905  0.02840952  0.34342194  1
  C  C235  1  0.93629923  0.34138778  0.49017935  1
  N  N236  1  0.57561339  0.20818020  0.43279886  1
  H  H237  1  0.63013075  0.09985855  0.39607374  1
  C  C238  1  0.99525388  0.24211348  0.45500183  1
  C  C239  1  0.98816177  0.31018373  0.45952582  1
  H  H240  1  0.90530964  0.14980452  0.47679202  1
  C  C241  1  0.50855630  0.26451531  0.44677881  1
  C  C242  1  0.51184081  0.16674384  0.68139071  1
  C  C243  1  0.69691953  0.25132981  0.60136456  1
  O  O244  1  0.71618402  0.35345541  0.57162042  1
  C  C245  1  0.88576686  0.23355470  0.51238878  1
  O  O246  1  0.82837385  0.14520612  0.55338672  1
  C  C247  1  0.57604173  0.32880411  0.63714406  1
  C  C248  1  0.95627375  0.19211244  0.69057931  1
  O  O249  1  0.93089815  0.30467488  0.73062267  1
  N  N250  1  0.77451041  0.25161960  0.56683102  1
  C  C251  1  0.95818198  0.07186042  0.68897137  1
  C  C252  1  0.87286560  0.30009691  0.51779270  1
  C  C253  1  0.78406812  0.31041142  0.55178598  1
  C  C254  1  0.64763134  0.31571411  0.60577817  1
  C  C255  1  0.81931288  0.20025727  0.54674189  1
  C  C256  1  0.53324421  0.28288112  0.66225961  1
  H  H257  1  0.66789236  0.15290785  0.62095035  1
  C  C258  1  0.64749488  0.20312039  0.62564050  1
  H  H259  1  0.88444626  0.19114240  0.71706877  1
  O  O260  1  0.82068963  0.06689965  0.70827962  1
  C  C261  1  0.53808573  0.39557225  0.65509499  1
  C  C262  1  0.55928059  0.21927946  0.65637075  1
  O  O263  1  0.53589839  0.44291126  0.63619130  1
  O  O264  1  0.51749966  0.11261516  0.66874444  1
  Zn  Zn265  1  0.54927006  0.02706224  0.69919556  1
  O  O266  1  0.53137152  0.40558104  0.68660016  1
  H  H267  1  0.88146291  0.06530041  0.77234888  1
  O  O268  1  0.56749862  0.25845492  0.79882568  1
  O  O269  1  0.70502534  0.06691662  0.89690166  1
  C  C270  1  0.55570345  0.38731738  0.83177930  1
  C  C271  1  0.68652916  0.44252530  0.90015116  1
  C  C272  1  0.54960604  0.45213759  0.83826644  1
  O  O273  1  0.78612161  0.39077396  0.90266972  1
  H  H274  1  0.58013607  0.04246245  0.83776159  1
  C  C275  1  0.95935173  0.43945072  0.79618502  1
  H  H276  1  0.61903536  0.35179539  0.84867059  1
  C  C277  1  0.98175235  0.17301680  0.79904391  1
  N  N278  1  0.59477118  0.47204805  0.87281218  1
  O  O279  1  0.99708779  0.38394850  0.80780694  1
  O  O280  1  0.88644236  0.17410519  0.77079409  1
  C  C281  1  0.95817834  0.05910130  0.79854156  1
  H  H282  1  0.94871510  0.41114799  0.91061345  1
  Zn  Zn283  1  0.57116376  0.17530062  0.76722902  1
  C  C284  1  0.68133164  0.01341762  0.90683562  1
  O  O285  1  0.90439664  0.44670631  0.76711345  1
  H  H286  1  0.50233932  0.08095016  0.99531329  1
  O  O287  1  0.52290184  0.08658331  0.78485846  1
  H  H288  1  0.97746816  0.02703453  0.99560771  1
  C  C289  1  0.97756333  0.49966255  0.81773910  1
  O  O290  1  0.77358591  0.73939978  0.19367886  1
  C  C291  1  0.76576863  0.58308952  0.00856316  1
  C  C292  1  0.51558216  0.59131897  0.09392060  1
  H  H293  1  0.86864302  0.57865352  0.23566093  1
  N  N294  1  0.59976429  0.54542931  0.11511754  1
  C  C295  1  0.71895324  0.99107588  0.17374315  1
  C  C296  1  0.85923746  0.95440345  0.22980589  1
  C  C297  1  0.80459797  0.56778300  0.21153225  1
  C  C298  1  0.86685665  0.55421422  0.03491915  1
  H  H299  1  0.64253065  0.65824960  0.14450661  1
  O  O300  1  0.55058529  0.92192383  0.10691572  1
  C  C301  1  0.76404287  0.62276600  0.19285728  1
  C  C302  1  0.80190907  0.68813254  0.20898130  1
  O  O303  1  0.86540533  0.90010597  0.21693763  1
  H  H304  1  0.70497023  0.94336843  0.16413478  1
  O  O305  1  0.89724716  0.68515723  0.23638729  1
  C  C306  1  0.53142841  0.97691114  0.10215730  1
  Zn  Zn307  1  0.75153554  0.81447823  0.23229227  1
  C  C308  1  0.69298690  0.61588250  0.15978704  1
  C  C309  1  0.66880497  0.55384688  0.14802434  1
  H  H310  1  0.70911730  0.62899106  0.01242635  1
  C  C311  1  0.87602855  0.94452080  0.02745102  1
  C  C312  1  0.91338675  0.91388657  0.05948945  1
  O  O313  1  0.53769184  0.64610633  0.08769270  1
  C  C314  1  0.95745508  0.53459541  0.06058229  1
  O  O315  1  0.96115965  0.79605428  0.05134788  1
  C  C316  1  0.76918298  0.50461293  0.20163016  1
  C  C317  1  0.93813759  0.84934021  0.05742315  1
  H  H318  1  0.51666951  0.93910434  0.00643944  1
  N  N319  1  0.99117661  0.91510668  0.11954098  1
  C  C320  1  0.95853268  0.95291252  0.09310286  1
  C  C321  1  0.85042360  0.99685139  0.00245425  1
  H  H322  1  0.85933694  0.69472117  0.29676860  1
  C  C323  1  0.71613056  0.64662456  0.33655933  1
  O  O324  1  0.86883954  0.80658073  0.28231868  1
  C  C325  1  0.82922612  0.72350143  0.48975435  1
  O  O326  1  0.68271714  0.53403587  0.33118067  1
  C  C327  1  0.80226141  0.81263583  0.31244096  1
  C  C328  1  0.64660839  0.76351593  0.36741361  1
  O  O329  1  0.78209653  0.86421070  0.32662188  1
  C  C330  1  0.74205858  0.76005656  0.33547263  1
  Zn  Zn331  1  0.85847377  0.96475070  0.31415822  1
  C  C332  1  0.77656105  0.70118866  0.32036390  1
  H  H333  1  0.81343863  0.67078108  0.48866225  1
  O  O334  1  0.88692922  0.58048439  0.29804578  1
  C  C335  1  0.91495836  0.75872604  0.46285561  1
  C  C336  1  0.76671669  0.58187882  0.32112100  1
  C  C337  1  0.62632682  0.64752876  0.36854249  1
  C  C338  1  0.59264282  0.70770357  0.38430908  1
  H  H339  1  0.60709877  0.81056260  0.37678623  1
  C  C340  1  0.93569481  0.82447652  0.46449328  1
  H  H341  1  0.57362633  0.60360774  0.37743142  1
  C  C342  1  0.99974426  0.74449290  0.42619964  1
  C  C343  1  0.87201943  0.86099687  0.49228023  1
  H  H344  1  0.90382023  0.91216545  0.49322480  1
  O  O345  1  0.99837644  0.69457413  0.41249402  1
  N  N346  1  0.51403310  0.71150763  0.41782172  1
  O  O347  1  0.92630255  0.96519194  0.25957275  1
  O  O348  1  0.97218838  0.87329149  0.67049195  1
  C  C349  1  0.90555090  0.70554108  0.67979611  1
  O  O350  1  0.93154829  0.58547555  0.71366592  1
  C  C351  1  0.70758154  0.84704385  0.55421067  1
  C  C352  1  0.98296076  0.64972973  0.62649972  1
  C  C353  1  0.56672201  0.84099638  0.62499843  1
  C  C354  1  0.59279677  0.78513686  0.60437939  1
  O  O355  1  0.80771492  0.54672395  0.66736181  1
  H  H356  1  0.85336938  0.70596504  0.70657091  1
  C  C357  1  0.69074504  0.73342367  0.55246710  1
  N  N358  1  0.67567217  0.78877113  0.57125966  1
  O  O359  1  0.88440900  0.81883544  0.71656558  1
  C  C360  1  0.78877662  0.82802563  0.51993357  1
  C  C361  1  0.76355910  0.75945565  0.51820794  1
  C  C362  1  0.88925650  0.59005352  0.68215714  1
  H  H363  1  0.59388051  0.88605311  0.61167474  1
  O  O364  1  0.67663000  0.89874300  0.56475457  1
  O  O365  1  0.65911084  0.67920003  0.55885413  1
  C  C366  1  0.94108567  0.82135042  0.68590630  1
  H  H367  1  0.53897745  0.68515050  0.60283376  1
  C  C368  1  0.96023284  0.76157761  0.66405220  1
  C  C369  1  0.91998138  0.65104815  0.66070612  1
  C  C370  1  0.53063397  0.72821564  0.61985546  1
  Zn  Zn371  1  0.53382703  0.51912989  0.68170315  1
  O  O372  1  0.50674867  0.95432300  0.66355550  1
  C  C373  1  0.71164199  0.96974196  0.93664895  1
  C  C374  1  0.83144147  0.91728297  0.99417875  1
  C  C375  1  0.93596398  0.67521251  0.80302331  1
  H  H376  1  0.92570076  0.87811843  0.98524240  1
  C  C377  1  0.64673087  0.50136145  0.91573712  1
  C  C378  1  0.55174989  0.53250383  0.88472123  1
  O  O379  1  0.94897854  0.88795181  0.79780031  1
  C  C380  1  0.78188785  0.96713495  0.96903562  1
  C  C381  1  0.93672048  0.94140530  0.78580083  1
  C  C382  1  0.66610637  0.91017435  0.91579265  1
  C  C383  1  0.53273143  0.99601275  0.83304024  1
  C  C384  1  0.71666773  0.54485933  0.97866250  1
  N  N385  1  0.62947790  0.95597000  0.89017669  1
  O  O386  1  0.64333801  0.85422305  0.91599018  1
  H  H387  1  0.85801914  0.55715853  0.77746093  1
  C  C388  1  0.55749867  0.94690129  0.85716735  1
  C  C389  1  0.98558510  0.99803884  0.80931198  1
  O  O390  1  0.84382633  0.72131072  0.81089800  1
  O  O391  1  0.52062270  0.58308871  0.87242739  1
  C  C392  1  0.68661722  0.52316167  0.94979610  1
  H  H393  1  0.83856212  0.62673760  0.87628305  1
  C  C394  1  0.94067822  0.61348774  0.82147887  1
  Zn  Zn395  1  0.96543788  0.79323458  0.77283037  1
  C  C396  1  0.92991791  0.55718518  0.80350522  1
  H  H397  1  0.50882180  0.84255327  0.86560205  1
  C  C398  1  0.95598629  0.60558865  0.85973481  1
  O  O399  1  0.88225120  0.95675913  0.75662732  1
