# generated using pymatgen
data_CuH5C15NO6
_symmetry_space_group_name_H-M   'P 1'
_cell_length_a   16.46929266
_cell_length_b   10.44563907
_cell_length_c   19.91466113
_cell_angle_alpha   90.00000000
_cell_angle_beta   90.00000000
_cell_angle_gamma   90.00000000
_symmetry_Int_Tables_number   1
_chemical_formula_structural   CuH5C15NO6
_chemical_formula_sum   'Cu8 H40 C120 N8 O48'
_cell_volume   3425.96469721
_cell_formula_units_Z   8
loop_
 _symmetry_equiv_pos_site_id
 _symmetry_equiv_pos_as_xyz
  1  'x, y, z'
loop_
 _atom_site_type_symbol
 _atom_site_label
 _atom_site_symmetry_multiplicity
 _atom_site_fract_x
 _atom_site_fract_y
 _atom_site_fract_z
 _atom_site_occupancy
  N  N0  1  0.18416180  0.17218251  0.42404558  1
  C  C1  1  0.19695564  0.19297364  0.17478629  1
  Cu  Cu2  1  0.05917143  0.14472922  0.10902247  1
  O  O3  1  0.12892103  0.12686644  0.18088908  1
  C  C4  1  0.18811394  0.19355350  0.30024846  1
  O  O5  1  0.23126606  0.21088678  0.12248948  1
  C  C6  1  0.22724826  0.19645998  0.48486258  1
  H  H7  1  0.01933284  0.34303973  0.27389235  1
  H  H8  1  0.13994911  0.12074667  0.29538997  1
  C  C9  1  0.05421301  0.43038718  0.39335426  1
  C  C10  1  0.11043761  0.11344774  0.42027354  1
  O  O11  1  0.07686502  0.07261292  0.37185821  1
  C  C12  1  0.10594955  0.46329999  0.45339244  1
  C  C13  1  0.22545820  0.24003824  0.24134982  1
  O  O14  1  0.09253630  0.43925394  0.34359343  1
  C  C15  1  0.21911453  0.22702573  0.36393510  1
  C  C16  1  0.06839939  0.09404035  0.48769255  1
  O  O17  1  0.00939370  0.29206647  0.15306756  1
  C  C18  1  0.11498756  0.12275102  0.67437842  1
  H  H19  1  0.03210361  0.18303774  0.84680313  1
  C  C20  1  0.07240771  0.10001261  0.61471745  1
  C  C21  1  0.12331195  0.47490490  0.57487277  1
  C  C22  1  0.22739460  0.20492603  0.61400405  1
  H  H23  1  0.22509664  0.17801272  0.72615226  1
  O  O24  1  0.12449525  0.41813070  0.75327798  1
  C  C25  1  0.19373331  0.16909854  0.67601065  1
  C  C26  1  0.11036141  0.12360118  0.54826939  1
  O  O27  1  0.12245314  0.10334217  0.78780881  1
  C  C28  1  0.14935389  0.46028543  0.70068594  1
  O  O29  1  0.07651127  0.21895270  0.96310534  1
  C  C30  1  0.19073957  0.17791202  0.55228240  1
  C  C31  1  0.09723909  0.43892856  0.64073098  1
  Cu  Cu32  1  0.11153962  0.38949888  0.95141678  1
  C  C33  1  0.07557622  0.09299368  0.74099470  1
  C  C34  1  0.07137688  0.43343882  0.51753881  1
  O  O35  1  0.01294959  0.44501223  0.89771550  1
  C  C36  1  0.02422644  0.37501285  0.64542283  1
  C  C37  1  0.00929873  0.17107249  0.97923922  1
  H  H38  1  0.00262017  0.35256514  0.69726298  1
  O  O39  1  0.22226582  0.58591740  0.11528623  1
  C  C40  1  0.13005428  0.78169165  0.41514746  1
  N  N41  1  0.07679644  0.75420493  0.36793339  1
  C  C42  1  0.19158637  0.61999407  0.17314768  1
  H  H43  1  0.11292971  0.69627400  0.28645278  1
  C  C44  1  0.07104914  0.67665126  0.24222872  1
  O  O45  1  0.23444633  0.64865258  0.21879670  1
  O  O46  1  0.20025970  0.80588797  0.40650487  1
  C  C47  1  0.09828547  0.63132738  0.18023622  1
  C  C48  1  0.09615797  0.77567038  0.48659356  1
  H  H49  1  0.06518587  0.56520892  0.07707646  1
  C  C50  1  0.04638540  0.60120271  0.12583506  1
  C  C51  1  0.01061457  0.75006362  0.49548768  1
  C  C52  1  0.18310557  0.51611245  0.44503856  1
  H  H53  1  0.20798695  0.52687825  0.39364014  1
  Cu  Cu54  1  0.24827305  0.71211423  0.05911061  1
  C  C55  1  0.22996582  0.56012480  0.80941843  1
  H  H56  1  0.14718938  0.78787864  0.65263446  1
  C  C57  1  0.02272449  0.75551110  0.62443690  1
  C  C58  1  0.10665569  0.77806050  0.61027949  1
  H  H59  1  0.20869288  0.80827273  0.53932741  1
  O  O60  1  0.01316407  0.77261455  0.74182412  1
  O  O61  1  0.15653122  0.54704493  0.93154749  1
  N  N62  1  0.22320390  0.52129717  0.68793845  1
  C  C63  1  0.14287796  0.78560221  0.54614276  1
  C  C64  1  0.22859359  0.58157563  0.93108348  1
  H  H65  1  0.16630838  0.54146001  0.81556375  1
  C  C66  1  0.20204327  0.52981160  0.56585587  1
  C  C67  1  0.22981553  0.55095689  0.50044251  1
  C  C68  1  0.32279674  0.35779518  0.30533395  1
  O  O69  1  0.43267080  0.48587076  0.25695445  1
  C  C70  1  0.28598198  0.31557290  0.36338084  1
  C  C71  1  0.39348469  0.44888138  0.31005338  1
  H  H72  1  0.30915396  0.35462630  0.41326295  1
  H  H73  1  0.31974490  0.35213855  0.19245975  1
  C  C74  1  0.29468424  0.31815309  0.24019783  1
  O  O75  1  0.41704669  0.47818395  0.36528642  1
  O  O76  1  0.29547169  0.23470866  0.48738915  1
  H  H77  1  0.31014724  0.03324362  0.30208009  1
  H  H78  1  0.29221631  0.03103529  0.42861166  1
  H  H79  1  0.29170082  0.23902442  0.61905634  1
  O  O80  1  0.42289739  0.35129783  0.60500080  1
  H  H81  1  0.39842648  0.10073068  0.56389178  1
  C  C82  1  0.44711013  0.29992474  0.65421629  1
  C  C83  1  0.43735286  0.06920728  0.60767866  1
  O  O84  1  0.47343539  0.36920256  0.70508406  1
  C  C85  1  0.46448656  0.15599433  0.65573301  1
  H  H86  1  0.36135768  0.87490583  0.11415678  1
  C  C87  1  0.42679552  0.80525421  0.02588761  1
  C  C88  1  0.41101635  0.89444693  0.31039255  1
  C  C89  1  0.38785311  0.90208885  0.44767206  1
  C  C90  1  0.46804444  0.82856552  0.35035791  1
  O  O91  1  0.37605389  0.94767211  0.20141422  1
  C  C92  1  0.41929576  0.82968558  0.09431751  1
  C  C93  1  0.41880771  0.87982592  0.23387692  1
  O  O94  1  0.28202460  0.85503512  0.01198842  1
  C  C95  1  0.34044452  0.97813417  0.40454090  1
  C  C96  1  0.34818724  0.97284473  0.33558942  1
  C  C97  1  0.45628583  0.83254976  0.42487684  1
  N  N98  1  0.47366502  0.79181755  0.20814043  1
  C  C99  1  0.48232754  0.79236483  0.13697885  1
  H  H100  1  0.29119466  0.59186578  0.49320470  1
  H  H101  1  0.39115649  0.65001027  0.91132350  1
  C  C102  1  0.35561058  0.61925037  0.86729602  1
  C  C103  1  0.35395204  0.57956721  0.74714449  1
  C  C104  1  0.39447234  0.60846719  0.80478395  1
  O  O105  1  0.30391154  0.91103944  0.54629314  1
  C  C106  1  0.27494925  0.59169124  0.86733695  1
  C  C107  1  0.48208439  0.63950977  0.79632120  1
  H  H108  1  0.38488529  0.57774892  0.69623634  1
  C  C109  1  0.35400777  0.85165448  0.98256062  1
  O  O110  1  0.36512041  0.88479359  0.92656059  1
  C  C111  1  0.45956158  0.93888601  0.61365593  1
  C  C112  1  0.36931581  0.89099132  0.52335263  1
  O  O113  1  0.31766183  0.61161301  0.61506390  1
  C  C114  1  0.26865287  0.55883839  0.74521268  1
  O  O115  1  0.26787861  0.59261767  0.98406447  1
  N  N116  1  0.43927118  0.85956950  0.55672020  1
  C  C117  1  0.49174055  0.74537685  0.99387886  1
  C  C118  1  0.25372685  0.56125907  0.62539406  1
  C  C119  1  0.49318801  0.75779356  0.54377110  1
  H  H120  1  0.49400685  0.72481645  0.93830017  1
  C  C121  1  0.69946451  0.40274456  0.30468358  1
  Cu  Cu122  1  0.54300767  0.46082845  0.24841765  1
  O  O123  1  0.65488786  0.41346556  0.24890149  1
  O  O124  1  0.67246910  0.42146570  0.35871571  1
  C  C125  1  0.70204865  0.36393104  0.73536724  1
  H  H126  1  0.53400293  0.19020835  0.74462820  1
  O  O127  1  0.56808814  0.02691475  0.82944639  1
  O  O128  1  0.67905285  0.26975576  0.76154321  1
  C  C129  1  0.50910204  0.11759379  0.71135089  1
  Cu  Cu130  1  0.55673026  0.48565160  0.70368473  1
  O  O131  1  0.66096293  0.42044186  0.68832063  1
  C  C132  1  0.56578497  0.67987874  0.43333831  1
  H  H133  1  0.60572438  0.71090244  0.13672656  1
  C  C134  1  0.57455846  0.67871063  0.36335557  1
  C  C135  1  0.52750822  0.71821818  0.24543761  1
  H  H136  1  0.61976496  0.61790987  0.34456899  1
  C  C137  1  0.52383551  0.74200985  0.31857087  1
  O  O138  1  0.57324448  0.63150934  0.22912096  1
  H  H139  1  0.61562758  0.63276383  0.45934158  1
  C  C140  1  0.55661567  0.72061653  0.03768076  1
  C  C141  1  0.55310194  0.73776135  0.10594336  1
  O  O142  1  0.69354045  0.66672221  0.04040964  1
  C  C143  1  0.50276112  0.74928415  0.46742112  1
  C  C144  1  0.63216986  0.67968542  0.00228851  1
  Cu  Cu145  1  0.63325978  0.74688372  0.86114731  1
  C  C146  1  0.50536541  0.89636385  0.67066146  1
  O  O147  1  0.62004751  0.85579234  0.78877721  1
  O  O148  1  0.50664411  0.61714542  0.73526343  1
  H  H149  1  0.51833670  0.79169049  0.68006190  1
  O  O150  1  0.52448890  0.68058136  0.84051475  1
  O  O151  1  0.63552534  0.65055188  0.94147349  1
  O  O152  1  0.53349437  0.70569331  0.58434681  1
  O  O153  1  0.74328945  0.80801397  0.86364666  1
  C  C154  1  0.57662184  0.95626493  0.78383190  1
  C  C155  1  0.52870687  0.98786013  0.71700589  1
  H  H156  1  0.78210126  0.35972097  0.18935700  1
  C  C157  1  0.90391021  0.35036498  0.22596302  1
  C  C158  1  0.95506696  0.35206430  0.28149617  1
  C  C159  1  0.81950856  0.35642012  0.23192206  1
  C  C160  1  0.83678454  0.38521792  0.35288107  1
  O  O161  1  0.87725934  0.30993790  0.47669006  1
  Cu  Cu162  1  0.89606717  0.32884955  0.01704323  1
  N  N163  1  0.97607626  0.37957763  0.40269580  1
  C  C164  1  0.92273526  0.36638373  0.34681826  1
  C  C165  1  0.78867538  0.38082261  0.29572253  1
  O  O166  1  0.88604331  0.30840407  0.11022709  1
  H  H167  1  0.80817917  0.40028699  0.40185251  1
  C  C168  1  0.93632068  0.31939571  0.15811751  1
  C  C169  1  0.94182307  0.35506755  0.46608069  1
  H  H170  1  0.95713664  0.01593712  0.44962396  1
  O  O171  1  0.99234686  0.15488931  0.03868152  1
  C  C172  1  0.99032641  0.03948548  0.49656564  1
  O  O173  1  0.89750136  0.33852791  0.92562726  1
  H  H174  1  0.79919339  0.31485223  0.84614455  1
  C  C175  1  0.99087508  0.04929546  0.62156936  1
  O  O176  1  0.87555709  0.00878956  0.68565493  1
  C  C177  1  0.94372692  0.40466408  0.88707466  1
  H  H178  1  0.91409494  0.29458460  0.60309801  1
  C  C179  1  0.97255973  0.34288032  0.59260679  1
  N  N180  1  0.99566273  0.05936684  0.74326744  1
  C  C181  1  0.82491880  0.39101520  0.81397049  1
  C  C182  1  0.90058165  0.44854497  0.82711496  1
  C  C183  1  0.96181342  0.09822858  0.92715423  1
  C  C184  1  0.95416774  0.02334541  0.55970919  1
  C  C185  1  0.98917328  0.10563331  0.86067933  1
  C  C186  1  0.95396539  0.03994135  0.80664167  1
  C  C187  1  0.94468730  0.03744081  0.68729495  1
  C  C188  1  0.78307329  0.42303590  0.75618328  1
  C  C189  1  0.99314121  0.37633066  0.52800110  1
  C  C190  1  0.89799850  0.01587338  0.93832556  1
  H  H191  1  0.87160628  0.01327398  0.98789929  1
  C  C192  1  0.87666806  0.74576972  0.44568542  1
  O  O193  1  0.93306401  0.50865302  0.02963860  1
  H  H194  1  0.83786602  0.73432188  0.40101014  1
  Cu  Cu195  1  0.79536141  0.73592405  0.02036883  1
  C  C196  1  0.95998083  0.75179954  0.43642144  1
  H  H197  1  0.86664218  0.64470501  0.20645919  1
  O  O198  1  0.95082121  0.71766110  0.31997370  1
  O  O199  1  0.83820858  0.61877488  0.08056783  1
  C  C200  1  0.90900576  0.57932268  0.07706684  1
  C  C201  1  0.96318743  0.60639849  0.13593146  1
  C  C202  1  0.93321154  0.64853160  0.19776928  1
  C  C203  1  0.98634865  0.67865679  0.24819247  1
  C  C204  1  0.99835857  0.73915567  0.37129406  1
  C  C205  1  0.88630256  0.95915180  0.81894071  1
  O  O206  1  0.77387236  0.86496393  0.96507417  1
  C  C207  1  0.97732230  0.73942822  0.56262093  1
  H  H208  1  0.77090718  0.55854939  0.67215400  1
  N  N209  1  0.90366948  0.68366883  0.68265568  1
  C  C210  1  0.84838564  0.73145406  0.63372318  1
  O  O211  1  0.77473285  0.75058534  0.63918428  1
  C  C212  1  0.85721959  0.95001225  0.88501181  1
  C  C213  1  0.78731009  0.87227464  0.90221269  1
  C  C214  1  0.87943535  0.59106727  0.72990915  1
  C  C215  1  0.88922657  0.73885734  0.56789200  1
  H  H216  1  0.85008597  0.90885812  0.78004499  1
  C  C217  1  0.92889473  0.54295953  0.78458001  1
  C  C218  1  0.80857597  0.52232210  0.71472232  1
  C  C219  1  0.84253293  0.72482943  0.51007751  1
  H  H220  1  0.77502717  0.72329088  0.51947443  1
  C  C221  1  0.97871886  0.74142895  0.69116722  1
  H  H222  1  0.98779592  0.58389264  0.80021135  1
  H  H223  1  0.89049161  0.98999617  0.55675739  1
