# generated using pymatgen
data_CuH8(C5N3)2
_symmetry_space_group_name_H-M   'P 1'
_cell_length_a   20.51642637
_cell_length_b   14.68356093
_cell_length_c   13.41921484
_cell_angle_alpha   90.00000000
_cell_angle_beta   90.00000000
_cell_angle_gamma   90.00000000
_symmetry_Int_Tables_number   1
_chemical_formula_structural   CuH8(C5N3)2
_chemical_formula_sum   'Cu16 H128 C160 N96'
_cell_volume   4042.59478575
_cell_formula_units_Z   16
loop_
 _symmetry_equiv_pos_site_id
 _symmetry_equiv_pos_as_xyz
  1  'x, y, z'
loop_
 _atom_site_type_symbol
 _atom_site_label
 _atom_site_symmetry_multiplicity
 _atom_site_fract_x
 _atom_site_fract_y
 _atom_site_fract_z
 _atom_site_occupancy
  C  C0  1  0.12493982  0.31913712  0.34431382  1
  C  C1  1  0.13204525  0.15600493  0.11812712  1
  H  H2  1  0.05563024  0.05062040  0.39701077  1
  N  N3  1  0.21979357  0.13786807  0.20257827  1
  H  H4  1  0.07547723  0.17352532  0.26755073  1
  C  C5  1  0.02975625  0.13601295  0.27613574  1
  C  C6  1  0.24233802  0.39157221  0.36385503  1
  H  H7  1  0.02076965  0.27144944  0.34264071  1
  C  C8  1  0.01744708  0.06495848  0.34337059  1
  H  H9  1  0.13840019  0.29529934  0.27139945  1
  C  C10  1  0.05995378  0.30885175  0.38185501  1
  H  H11  1  0.08450082  0.13148459  0.09217148  1
  N  N12  1  0.16221353  0.10020400  0.18337535  1
  C  C13  1  0.04342019  0.35249989  0.47257278  1
  N  N14  1  0.22708437  0.22239005  0.11735357  1
  N  N15  1  0.02272047  0.40448070  0.22103389  1
  C  C16  1  0.16793629  0.22794660  0.07438649  1
  C  C17  1  0.16830643  0.37773008  0.39556848  1
  H  H18  1  0.15035585  0.44593345  0.11058564  1
  C  C19  1  0.15344184  0.41661081  0.48963860  1
  C  C20  1  0.00433539  0.33647389  0.19038052  1
  C  C21  1  0.24463954  0.07889078  0.44311924  1
  H  H22  1  0.24532300  0.26362432  0.32146096  1
  C  C23  1  0.18121678  0.04186628  0.47825611  1
  H  H24  1  0.03958690  0.24727366  0.01541525  1
  Cu  Cu25  1  0.06516355  0.49742072  0.32688668  1
  C  C26  1  0.07093138  0.11471685  0.85815141  1
  C  C27  1  0.10868187  0.22872375  0.73834695  1
  H  H28  1  0.21368687  0.07927231  0.86780073  1
  H  H29  1  0.18981453  0.45165571  0.53592906  1
  C  C30  1  0.05104722  0.34893996  0.89974193  1
  C  C31  1  0.22214060  0.24021174  0.68154539  1
  C  C32  1  0.19384311  0.13023831  0.81373933  1
  C  C33  1  0.12467240  0.15487687  0.80207971  1
  H  H34  1  0.14186937  0.33110190  0.63676333  1
  H  H35  1  0.12766158  0.02509415  0.93421652  1
  C  C36  1  0.07528727  0.29171766  0.97374976  1
  H  H37  1  0.19533461  0.45906634  0.83817638  1
  N  N38  1  0.08176804  0.04817339  0.92029012  1
  H  H39  1  0.07571360  0.43384091  0.60148588  1
  C  C40  1  0.00214737  0.14173593  0.84463139  1
  C  C41  1  0.09236533  0.40957454  0.84401582  1
  C  C42  1  0.18680029  0.34950687  0.94233274  1
  C  C43  1  0.15530946  0.26880295  0.67756038  1
  C  C44  1  0.16114205  0.40816838  0.87052756  1
  N  N45  1  0.14160502  0.09004873  0.53612240  1
  C  C46  1  0.08967380  0.40245241  0.52873922  1
  H  H47  1  0.05699197  0.25106454  0.73053717  1
  H  H48  1  0.16410067  0.14798759  0.55902417  1
  C  C49  1  0.07068830  0.47411112  0.76788462  1
  N  N50  1  0.01125324  0.47955204  0.72904142  1
  H  H51  1  0.23458399  0.43453564  0.68140892  1
  H  H52  1  0.24144685  0.35306104  0.96377609  1
  C  C53  1  0.14424865  0.28917272  0.99296386  1
  C  C54  1  0.24111783  0.16860478  0.75100807  1
  H  H55  1  0.15677933  0.60365984  0.39054653  1
  C  C56  1  0.00918658  0.69274808  0.34772297  1
  N  N57  1  0.03436139  0.62804638  0.05816147  1
  C  C58  1  0.16051299  0.94397889  0.45134063  1
  C  C59  1  0.10997716  0.76838828  0.41770938  1
  C  C60  1  0.09352618  0.64253578  0.02977786  1
  C  C61  1  0.22779933  0.79876664  0.15623843  1
  H  H62  1  0.17570268  0.78246847  0.13843184  1
  N  N63  1  0.10830217  0.60595577  0.37166410  1
  C  C64  1  0.19410858  0.88634384  0.38235934  1
  H  H65  1  0.23901080  0.91541974  0.33926386  1
  H  H66  1  0.18690733  0.75203393  0.31391804  1
  C  C67  1  0.16621688  0.80230217  0.36273302  1
  Cu  Cu68  1  0.03458812  0.51624867  0.13575703  1
  C  C69  1  0.07815143  0.68354842  0.37683839  1
  C  C70  1  0.14359739  0.57034845  0.05305090  1
  H  H71  1  0.08090146  0.85675344  0.07691262  1
  N  N72  1  0.07066238  0.87698484  0.00551403  1
  N  N73  1  0.12468358  0.50342519  0.11467520  1
  C  C74  1  0.20697627  0.58264146  0.00167693  1
  C  C75  1  0.07980347  0.82554579  0.48971464  1
  C  C76  1  0.11329551  0.54172608  0.72626824  1
  H  H77  1  0.17772965  0.92650883  0.94256807  1
  N  N78  1  0.03229888  0.79345659  0.94102663  1
  H  H79  1  0.04183211  0.74745921  0.79861920  1
  C  C80  1  0.16165184  0.84120113  0.75501365  1
  C  C81  1  0.15982988  0.75946162  0.69467732  1
  C  C82  1  0.06265467  0.78670006  0.85799489  1
  N  N83  1  0.13924177  0.88092943  0.93062503  1
  H  H84  1  0.20706383  0.68681844  0.56972875  1
  H  H85  1  0.16308851  0.70171294  0.92625208  1
  H  H86  1  0.07646781  0.96857441  0.53678479  1
  H  H87  1  0.12831777  0.70286230  0.72046525  1
  C  C88  1  0.12255092  0.83859564  0.84778151  1
  C  C89  1  0.20337370  0.74806933  0.61676568  1
  C  C90  1  0.20444277  0.65099283  0.92426416  1
  N  N91  1  0.02148739  0.56887986  0.64503881  1
  H  H92  1  0.16331768  0.56220859  0.74334503  1
  H  H93  1  0.20084009  0.97791953  0.77286168  1
  C  C94  1  0.20467353  0.91534701  0.72706257  1
  N  N95  1  0.08322328  0.59071260  0.65611312  1
  C  C96  1  0.24736901  0.91365805  0.64590545  1
  H  H97  1  0.24303070  0.81678411  0.97731644  1
  C  C98  1  0.10417770  0.91456525  0.50007254  1
  H  H99  1  0.03498327  0.80328975  0.52672075  1
  H  H100  1  0.09751455  0.71027252  0.99387174  1
  H  H101  1  0.24672033  0.71132398  0.79139483  1
  C  C102  1  0.24855476  0.82341529  0.60036296  1
  Cu  Cu103  1  0.00101941  0.54394571  0.51312414  1
  Cu  Cu104  1  0.02037648  0.97805784  0.98183765  1
  H  H105  1  0.40422828  0.26726026  0.09819989  1
  H  H106  1  0.35285724  0.04266978  0.10938449  1
  N  N107  1  0.38063404  0.03940465  0.27287478  1
  Cu  Cu108  1  0.29386205  0.07080459  0.24708724  1
  C  C109  1  0.42674044  0.09827524  0.23772145  1
  N  N110  1  0.27188178  0.32125745  0.32733321  1
  H  H111  1  0.48273123  0.00764385  0.40944787  1
  N  N112  1  0.37665410  0.20813680  0.11722536  1
  C  C113  1  0.33457535  0.00560503  0.04372973  1
  C  C114  1  0.40817966  0.16420340  0.17067910  1
  N  N115  1  0.44707507  0.35923765  0.34166192  1
  C  C116  1  0.27130411  0.48169141  0.36537494  1
  H  H117  1  0.31298691  0.16058620  0.46195507  1
  H  H118  1  0.27377475  0.24558103  0.11738090  1
  H  H119  1  0.47653066  0.35211856  0.10346115  1
  N  N120  1  0.29517158  0.10561252  0.41448854  1
  C  C121  1  0.48488715  0.38683298  0.41252469  1
  C  C122  1  0.49762015  0.08292004  0.26783289  1
  H  H123  1  0.25913997  0.45675428  0.04392207  1
  N  N124  1  0.31035843  0.45257575  0.59025195  1
  C  C125  1  0.35911882  0.00741819  0.76596207  1
  N  N126  1  0.45168050  0.17238836  0.54824440  1
  N  N127  1  0.42032170  0.39608139  0.96292756  1
  C  C128  1  0.35918955  0.02789729  0.94946087  1
  N  N129  1  0.40580092  0.08371666  0.62665103  1
  H  H130  1  0.32519414  0.17336246  0.60025420  1
  H  H131  1  0.39028705  0.09116129  0.94018730  1
  N  N132  1  0.46833496  0.26363667  0.80065551  1
  H  H133  1  0.41146238  0.12985241  0.77521590  1
  N  N134  1  0.31972035  0.24472019  0.59570252  1
  N  N135  1  0.37637709  0.09657722  0.73842963  1
  C  C136  1  0.27219314  0.39735078  0.63558509  1
  N  N137  1  0.48046227  0.11692095  0.93462573  1
  C  C138  1  0.27271461  0.29873780  0.63376915  1
  H  H139  1  0.42964543  0.43303745  0.76799872  1
  N  N140  1  0.45571680  0.29381657  0.72083356  1
  H  H141  1  0.29510354  0.15524959  0.75982876  1
  H  H142  1  0.36697058  0.26274370  0.61703096  1
  H  H143  1  0.44330000  0.34212745  0.92595333  1
  Cu  Cu144  1  0.48875141  0.49548010  0.59556042  1
  C  C145  1  0.45823166  0.45553745  0.96852446  1
  N  N146  1  0.44439106  0.49659404  0.74556799  1
  H  H147  1  0.35604655  0.48723347  0.93197087  1
  N  N148  1  0.47306288  0.23889875  0.58873212  1
  Cu  Cu149  1  0.38144469  0.42420365  0.50726190  1
  N  N150  1  0.29528497  0.63013091  0.47061705  1
  Cu  Cu151  1  0.41459199  0.56859374  0.38178994  1
  C  C152  1  0.28960027  0.93199760  0.05662027  1
  C  C153  1  0.48768439  0.60931796  0.22926664  1
  N  N154  1  0.26415401  0.95073230  0.22958582  1
  Cu  Cu155  1  0.36496252  0.60255822  0.14724486  1
  H  H156  1  0.39496762  0.98609001  0.30734091  1
  N  N157  1  0.33752283  0.72073220  0.17310451  1
  C  C158  1  0.28747916  0.70871547  0.45654276  1
  N  N159  1  0.44480307  0.83261373  0.22569005  1
  N  N160  1  0.42583283  0.78935389  0.02433109  1
  Cu  Cu161  1  0.37785105  0.83286286  0.13245673  1
  N  N162  1  0.41992926  0.84618524  0.35090415  1
  N  N163  1  0.29157320  0.55409672  0.36370384  1
  N  N164  1  0.36667643  0.81631943  0.37179475  1
  N  N165  1  0.33793504  0.84508701  0.48891156  1
  H  H166  1  0.35163765  0.73382039  0.24553853  1
  N  N167  1  0.43194078  0.59510738  0.24260033  1
  C  C168  1  0.26306233  0.90294782  0.15966656  1
  H  H169  1  0.49848930  0.63389324  0.15511526  1
  H  H170  1  0.28510424  0.71158233  0.37207914  1
  H  H171  1  0.49689826  0.99851352  0.03290632  1
  N  N172  1  0.25427726  0.72852320  0.15935966  1
  C  C173  1  0.26289857  0.52037222  0.00328280  1
  C  C174  1  0.33598414  0.97880527  0.86545875  1
  C  C175  1  0.27795754  0.87325911  0.97472791  1
  Cu  Cu176  1  0.33356823  0.58025657  0.58947229  1
  C  C177  1  0.41168719  0.55519726  0.77830579  1
  H  H178  1  0.35497265  0.76123294  0.84630979  1
  H  H179  1  0.27946446  0.97127892  0.62782685  1
  N  N180  1  0.46612136  0.86117564  0.79186382  1
  C  C181  1  0.37927938  0.95151032  0.68830391  1
  N  N182  1  0.46103629  0.77171306  0.77120250  1
  C  C183  1  0.29228490  0.79132200  0.52366997  1
  Cu  Cu184  1  0.40269093  0.67041434  0.99629828  1
  N  N185  1  0.38820498  0.72001066  0.81467078  1
  C  C186  1  0.37601667  0.63088162  0.81490888  1
  H  H187  1  0.41032664  0.82238815  0.96003699  1
  C  C188  1  0.29931783  0.89842872  0.87834750  1
  C  C189  1  0.31029949  0.60525561  0.86406472  1
  H  H190  1  0.28513225  0.86251419  0.80808706  1
  C  C191  1  0.31138776  0.53302637  0.93292467  1
  H  H192  1  0.37348926  0.87495626  0.68059863  1
  Cu  Cu193  1  0.45736385  0.66891919  0.52592794  1
  N  N194  1  0.41239192  0.54689182  0.51901422  1
  N  N195  1  0.48536334  0.61451971  0.99936507  1
  C  C196  1  0.25376813  0.66109159  0.85308119  1
  H  H197  1  0.48302852  0.83998136  0.51061829  1
  H  H198  1  0.33961248  0.91195623  0.51381592  1
  N  N199  1  0.40889782  0.99604921  0.61111268  1
  H  H200  1  0.53258486  0.16051098  0.14091182  1
  C  C201  1  0.54820518  0.12117050  0.20677651  1
  C  C202  1  0.61386147  0.30315420  0.24209157  1
  C  C203  1  0.54573752  0.32651458  0.22620085  1
  C  C204  1  0.65634225  0.28918061  0.16526904  1
  C  C205  1  0.52812746  0.33854807  0.12429482  1
  H  H206  1  0.71390006  0.17609148  0.34454179  1
  N  N207  1  0.51480563  0.41748571  0.49104971  1
  C  C208  1  0.63388501  0.30076727  0.06312645  1
  C  C209  1  0.61479116  0.10718690  0.22335555  1
  C  C210  1  0.56997285  0.33054430  0.04242321  1
  H  H211  1  0.65018278  0.13805603  0.17088306  1
  H  H212  1  0.69369844  0.44985951  0.14877392  1
  H  H213  1  0.63282555  0.29201311  0.31860473  1
  H  H214  1  0.57542237  0.48688199  0.18319395  1
  C  C215  1  0.63680022  0.05322279  0.30623402  1
  H  H216  1  0.70999020  0.27137258  0.18115282  1
  C  C217  1  0.50436572  0.34897234  0.31192826  1
  N  N218  1  0.73364161  0.11636343  0.36966847  1
  C  C219  1  0.70686859  0.03716620  0.33718491  1
  C  C220  1  0.68004633  0.49148379  0.21632994  1
  H  H221  1  0.56167430  0.41730281  0.47614181  1
  C  C222  1  0.51884045  0.03531736  0.35581870  1
  C  C223  1  0.58594752  0.02386070  0.37320564  1
  C  C224  1  0.58887500  0.48651311  0.85239052  1
  H  H225  1  0.68849250  0.28551704  0.83245562  1
  C  C226  1  0.65459197  0.48629210  0.82125166  1
  C  C227  1  0.51764359  0.04823761  0.97608272  1
  C  C228  1  0.69825777  0.01263312  0.91388170  1
  C  C229  1  0.58042969  0.03858326  0.63493882  1
  H  H230  1  0.62106878  0.15750794  0.84527227  1
  H  H231  1  0.59390549  0.24276163  0.66514993  1
  H  H232  1  0.69878028  0.03418372  0.83764983  1
  N  N233  1  0.64161941  0.22694183  0.65658006  1
  N  N234  1  0.58764181  0.11003455  0.85994239  1
  N  N235  1  0.65711145  0.29818376  0.88775551  1
  H  H236  1  0.66633172  0.47053278  0.74396503  1
  H  H237  1  0.54651885  0.09151900  0.66075189  1
  C  C238  1  0.64905015  0.06249426  0.62635629  1
  N  N239  1  0.69829459  0.31251844  0.66071103  1
  H  H240  1  0.55023293  0.47331301  0.79591101  1
  C  C241  1  0.58169089  0.05043337  0.94016791  1
  C  C242  1  0.67912077  0.15519700  0.63172205  1
  H  H243  1  0.55502557  0.34112257  0.96110801  1
  C  C244  1  0.67421529  0.27743676  0.96989812  1
  C  C245  1  0.64390955  0.01630536  0.98160773  1
  H  H246  1  0.73988545  0.00762389  0.57522203  1
  C  C247  1  0.74594162  0.18628415  0.62577208  1
  N  N248  1  0.51162147  0.15232898  0.85888901  1
  C  C249  1  0.74329717  0.22767814  0.98367915  1
  H  H250  1  0.63705209  0.64343231  0.45278103  1
  C  C251  1  0.63741662  0.74183105  0.20763220  1
  N  N252  1  0.51424360  0.62878285  0.41141770  1
  H  H253  1  0.55187426  0.60880440  0.45801400  1
  C  C254  1  0.61532319  0.51910651  0.23036114  1
  C  C255  1  0.60070063  0.57846454  0.31532427  1
  C  C256  1  0.53070241  0.61029505  0.32367204  1
  C  C257  1  0.50518070  0.82339784  0.21718499  1
  C  C258  1  0.64921485  0.60073256  0.38781671  1
  C  C259  1  0.64059290  0.80029034  0.02762385  1
  C  C260  1  0.60547308  0.78305532  0.11860659  1
  C  C261  1  0.71285825  0.56501054  0.37361350  1
  H  H262  1  0.73165898  0.54482117  0.05135085  1
  C  C263  1  0.73419262  0.95081318  0.35545305  1
  H  H264  1  0.71379636  0.92561700  0.19384392  1
  C  C265  1  0.73402319  0.72168522  0.10013131  1
  C  C266  1  0.69981872  0.70741635  0.19264712  1
  H  H267  1  0.61770212  0.73968246  0.28485665  1
  C  C268  1  0.71357085  0.95678197  0.11695750  1
  H  H269  1  0.52872079  0.83722954  0.28940730  1
  C  C270  1  0.53516445  0.80709376  0.11943977  1
  H  H271  1  0.62057547  0.57592040  0.09144492  1
  H  H272  1  0.72496315  0.66837612  0.25138743  1
  C  C273  1  0.65358525  0.98266361  0.08377996  1
  C  C274  1  0.62693609  0.55105396  0.01556413  1
  H  H275  1  0.60897085  0.98187120  0.13268135  1
  C  C276  1  0.73014022  0.50883835  0.28889639  1
  H  H277  1  0.74815639  0.57524268  0.43454999  1
  N  N278  1  0.50474329  0.80896527  0.03098125  1
  H  H279  1  0.60428663  0.99782182  0.44489925  1
  C  C280  1  0.70499379  0.77507707  0.02194507  1
  H  H281  1  0.62223815  0.84124166  0.96351902  1
  H  H282  1  0.65930835  0.71952071  0.62220652  1
  N  N283  1  0.57908842  0.55220443  0.61684205  1
  N  N284  1  0.53645049  0.73401291  0.79125077  1
  H  H285  1  0.52884749  0.79441542  0.96857515  1
  H  H286  1  0.50183732  0.93724223  0.62910745  1
  C  C287  1  0.66985780  0.71591146  0.80954439  1
  C  C288  1  0.73669325  0.69985239  0.81004809  1
  C  C289  1  0.57738760  0.51615998  0.95198396  1
  H  H290  1  0.67073211  0.94543239  0.73952243  1
  H  H291  1  0.54523831  0.68139429  0.74355333  1
  C  C292  1  0.68955614  0.87796492  0.76308666  1
  C  C293  1  0.59689174  0.88619825  0.57120260  1
  N  N294  1  0.58381183  0.63392194  0.59953440  1
  H  H295  1  0.63268582  0.65925133  0.82308206  1
  C  C296  1  0.64695788  0.80688440  0.79396848  1
  C  C297  1  0.60974053  0.71745131  0.58871486  1
  H  H298  1  0.73128916  0.79865669  0.95457078  1
  C  C299  1  0.57331727  0.81107549  0.79864099  1
  C  C300  1  0.56953116  0.78827477  0.55634413  1
  N  N301  1  0.50800933  0.78263669  0.53087447  1
  C  C302  1  0.66246845  0.90780303  0.55545097  1
  C  C303  1  0.55287056  0.95442336  0.61097635  1
  C  C304  1  0.52968411  0.88401274  0.80132232  1
  H  H305  1  0.54362916  0.95499722  0.80394988  1
  H  H306  1  0.51630375  0.66564775  0.99784905  1
  C  C307  1  0.68794295  0.99250892  0.58366118  1
  H  H308  1  0.69491692  0.85204903  0.52169194  1
  C  C309  1  0.70476183  0.50320033  0.89305260  1
  C  C310  1  0.50447275  0.52955454  0.97633044  1
  C  C311  1  0.69251269  0.53442783  0.99459060  1
  Cu  Cu312  1  0.93545132  0.45654621  0.28522921  1
  N  N313  1  0.94296834  0.37682266  0.01910946  1
  N  N314  1  0.81500475  0.12200093  0.39462849  1
  C  C315  1  0.80358195  0.39586275  0.19475414  1
  H  H316  1  0.92424715  0.21501455  0.02753747  1
  N  N317  1  0.82493108  0.19605237  0.43097847  1
  C  C318  1  0.97746005  0.16463790  0.20960907  1
  N  N319  1  0.95180213  0.26468019  0.06251514  1
  H  H320  1  0.88055753  0.14180731  0.16083810  1
  C  C321  1  0.79584575  0.46473239  0.26786064  1
  N  N322  1  0.91031840  0.22307797  0.45274681  1
  H  H323  1  0.94827996  0.18676208  0.41935826  1
  C  C324  1  0.95604242  0.01242790  0.34212039  1
  C  C325  1  0.90877430  0.03783288  0.26895302  1
  H  H326  1  0.84992452  0.32319767  0.11208282  1
  N  N327  1  0.80083940  0.34004815  0.13310312  1
  C  C328  1  0.91836360  0.11592945  0.21043088  1
  C  C329  1  0.98200739  0.25581215  0.15244468  1
  H  H330  1  0.76775250  0.18295428  0.04207087  1
  N  N331  1  0.85144443  0.49086186  0.31302916  1
  C  C332  1  0.91598165  0.30164685  0.49269754  1
  H  H333  1  0.86027193  0.00227720  0.26661303  1
  H  H334  1  0.78811674  0.45667753  0.70383863  1
  C  C335  1  0.97310388  0.35403501  0.50869784  1
  N  N336  1  0.86895850  0.46681984  0.78510086  1
  H  H337  1  0.78927465  0.14834321  0.60995666  1
  N  N338  1  0.88517475  0.16479203  0.86839515  1
  N  N339  1  0.95673159  0.12182907  0.90493230  1
  H  H340  1  0.90641171  0.44436939  0.54743400  1
  N  N341  1  0.85085625  0.16507324  0.94170656  1
  N  N342  1  0.75402531  0.28177192  0.63627507  1
  N  N343  1  0.89254038  0.47430915  0.89756126  1
  N  N344  1  0.77935194  0.22448381  0.91599137  1
  H  H345  1  0.96740474  0.44812874  0.73005388  1
  C  C346  1  0.80668659  0.46421535  0.77886362  1
  N  N347  1  0.95479473  0.43680819  0.53392648  1
  N  N348  1  0.91825889  0.37427580  0.93644391  1
  C  C349  1  0.77496505  0.48915906  0.87441130  1
  N  N350  1  0.81802575  0.49837518  0.94795301  1
  H  H351  1  0.98362040  0.18776404  0.78866605  1
  H  H352  1  0.99987408  0.33795409  0.88065344  1
  H  H353  1  0.86608065  0.32395327  0.51481504  1
  N  N354  1  0.96911390  0.62278501  0.33563474  1
  C  C355  1  0.83538411  0.62231481  0.15800699  1
  C  C356  1  0.93809667  0.94609745  0.42112954  1
  Cu  Cu357  1  0.97077190  0.71472693  0.01660556  1
  H  H358  1  0.82220993  0.59796883  0.23379521  1
  N  N359  1  0.89160677  0.59064585  0.12311758  1
  H  H360  1  0.84478001  0.53799314  0.36670431  1
  N  N361  1  0.96044177  0.85959297  0.14501766  1
  C  C362  1  0.76597949  0.95562161  0.04626534  1
  N  N363  1  0.94286927  0.92348798  0.03663666  1
  N  N364  1  0.90095378  0.63011130  0.02963154  1
  N  N365  1  0.91368384  0.83617160  0.19439966  1
  H  H366  1  0.79785028  0.84660391  0.19536844  1
  H  H367  1  0.79891707  0.87544732  0.40779848  1
  N  N368  1  0.83417948  0.87397397  0.15681945  1
  C  C369  1  0.79614794  0.67614730  0.08896068  1
  H  H370  1  0.87557802  0.84492444  0.34093325  1
  N  N371  1  0.97951651  0.53461815  0.37023186  1
  C  C372  1  0.88588909  0.94389105  0.01202282  1
  N  N373  1  0.89878643  0.87409047  0.40127883  1
  C  C374  1  0.83044748  0.91702362  0.07386065  1
  N  N375  1  0.75545376  0.87794045  0.36857672  1
  H  H376  1  0.98626014  0.76225482  0.33014968  1
  H  H377  1  0.82599581  0.50760017  0.02148157  1
  N  N378  1  0.82934384  0.68334561  0.00342211  1
  C  C379  1  0.89772533  0.69635340  0.80908072  1
  H  H380  1  0.83155333  0.72531736  0.94348769  1
  N  N381  1  0.81131927  0.55033450  0.55437222  1
  H  H382  1  0.96013215  0.62144488  0.74970230  1
  C  C383  1  0.84759348  0.74222028  0.80029895  1
  C  C384  1  0.95803683  0.93789598  0.52208642  1
  N  N385  1  0.94920948  0.64793436  0.81912691  1
  Cu  Cu386  1  0.95430968  0.56254320  0.92624847  1
  H  H387  1  0.79066918  0.92005943  0.74053214  1
  N  N388  1  0.87088921  0.69862967  0.54260578  1
  C  C389  1  0.77979338  0.77695815  0.79090823  1
  N  N390  1  0.85657073  0.56438200  0.60869622  1
  N  N391  1  0.93229191  0.87026783  0.57794229  1
  N  N392  1  0.89674256  0.82111814  0.51919310  1
  C  C393  1  0.75578475  0.86848766  0.76982604  1
  C  C394  1  0.75858533  0.98448839  0.94522088  1
  H  H395  1  0.75379923  0.63041807  0.82247320  1
  N  N396  1  0.81978558  0.67316047  0.50704138  1
  H  H397  1  0.99095762  0.98125796  0.57093004  1
  H  H398  1  0.88150310  0.98699840  0.94312995  1
  H  H399  1  0.80062230  0.99126030  0.89633310  1
