# generated using pymatgen
data_CuH8(C5N3)2
_symmetry_space_group_name_H-M   'P 1'
_cell_length_a   22.43116679
_cell_length_b   8.44955881
_cell_length_c   20.53753865
_cell_angle_alpha   90.00000000
_cell_angle_beta   90.00000000
_cell_angle_gamma   90.00000000
_symmetry_Int_Tables_number   1
_chemical_formula_structural   CuH8(C5N3)2
_chemical_formula_sum   'Cu16 H128 C160 N96'
_cell_volume   3892.55082329
_cell_formula_units_Z   16
loop_
 _symmetry_equiv_pos_site_id
 _symmetry_equiv_pos_as_xyz
  1  'x, y, z'
loop_
 _atom_site_type_symbol
 _atom_site_label
 _atom_site_symmetry_multiplicity
 _atom_site_fract_x
 _atom_site_fract_y
 _atom_site_fract_z
 _atom_site_occupancy
  C  C0  1  0.06314059  0.45826992  0.27757563  1
  H  H1  1  0.24070706  0.16102389  0.40102625  1
  N  N2  1  0.16491626  0.13783858  0.11587964  1
  H  H3  1  0.04274456  0.42281068  0.23068296  1
  N  N4  1  0.05271491  0.34302827  0.11074961  1
  H  H5  1  0.19974341  0.20554554  0.29042336  1
  C  C6  1  0.14121815  0.01752111  0.22232098  1
  C  C7  1  0.14517925  0.32650844  0.44299116  1
  C  C8  1  0.13203495  0.37998354  0.37734475  1
  N  N9  1  0.04255470  0.23901183  0.33653771  1
  C  C10  1  0.07876790  0.35879512  0.33524884  1
  H  H11  1  0.16231120  0.04710627  0.36095134  1
  C  C12  1  0.19832382  0.37485856  0.47251858  1
  H  H13  1  0.15442506  0.37279845  0.15524369  1
  Cu  Cu14  1  0.01737342  0.06491605  0.39245947  1
  C  C15  1  0.18170594  0.09532997  0.17384321  1
  C  C16  1  0.24259676  0.20510765  0.26558291  1
  H  H17  1  0.01773160  0.22586622  0.29649040  1
  H  H18  1  0.12001588  0.11835802  0.11024010  1
  H  H19  1  0.11419884  0.24794242  0.46846425  1
  C  C20  1  0.17519924  0.49214094  0.14401602  1
  N  N21  1  0.01564780  0.08623534  0.07327496  1
  C  C22  1  0.03366003  0.48089251  0.12505121  1
  C  C23  1  0.17802880  0.47481747  0.34521894  1
  C  C24  1  0.24443737  0.15508700  0.19902885  1
  C  C25  1  0.24406695  0.46134656  0.44023852  1
  H  H26  1  0.12194009  0.46331249  0.01649358  1
  N  N27  1  0.10320065  0.14693762  0.56971193  1
  H  H28  1  0.22710973  0.11330792  0.57033983  1
  H  H29  1  0.12704793  0.28257352  0.78074749  1
  N  N30  1  0.20523258  0.14290700  0.61134605  1
  N  N31  1  0.04517759  0.35376707  0.66740328  1
  N  N32  1  0.14766743  0.37377561  0.75290791  1
  H  H33  1  0.07942147  0.28854208  0.64912943  1
  N  N34  1  0.13251942  0.08977222  0.61409338  1
  H  H35  1  0.18077132  0.20499252  0.84764732  1
  N  N36  1  0.16261067  0.27032581  0.88488093  1
  C  C37  1  0.12563711  0.40536433  0.97010949  1
  C  C38  1  0.21821700  0.22876339  0.66585265  1
  H  H39  1  0.20953484  0.32799698  0.52186872  1
  N  N40  1  0.05514855  0.07545680  0.82764878  1
  C  C41  1  0.18065177  0.30406165  0.71302678  1
  N  N42  1  0.03029294  0.06589083  0.57966851  1
  N  N43  1  0.08753534  0.24781004  0.89806845  1
  N  N44  1  0.07489461  0.32773639  0.95128577  1
  N  N45  1  0.01833293  0.11748334  0.86443294  1
  C  C46  1  0.17572676  0.37950954  0.92977502  1
  C  C47  1  0.23882162  0.44184986  0.93075694  1
  H  H48  1  0.16047873  0.10128085  0.99186737  1
  H  H49  1  0.14737263  0.87766517  0.07673004  1
  H  H50  1  0.05017424  0.65838209  0.24070485  1
  N  N51  1  0.08501006  0.85867904  0.48572800  1
  H  H52  1  0.00081807  0.76171892  0.15705131  1
  H  H53  1  0.23719358  0.53320033  0.02858315  1
  C  C54  1  0.24331820  0.96892735  0.47413496  1
  Cu  Cu55  1  0.06519606  0.77004491  0.35130232  1
  C  C56  1  0.23229391  0.51645280  0.37338559  1
  C  C57  1  0.13825497  0.62358153  0.12798494  1
  C  C58  1  0.16773953  0.76265829  0.09849938  1
  C  C59  1  0.07334952  0.61485293  0.13259793  1
  H  H60  1  0.06368759  0.84480818  0.16865022  1
  N  N61  1  0.04383358  0.75462267  0.14130575  1
  C  C62  1  0.22773115  0.78325837  0.09802893  1
  N  N63  1  0.06353920  0.60633240  0.28325994  1
  H  H64  1  0.17231764  0.51299882  0.29463338  1
  C  C65  1  0.17980891  0.94046763  0.45745022  1
  N  N66  1  0.02902795  0.97192172  0.25961665  1
  N  N67  1  0.08203537  0.92671702  0.41014381  1
  N  N68  1  0.00909015  0.89382920  0.30298070  1
  C  C69  1  0.23651457  0.51220854  0.15014859  1
  H  H70  1  0.24972925  0.88833667  0.07312936  1
  N  N71  1  0.11325030  0.95723582  0.26110681  1
  N  N72  1  0.15306357  0.98833307  0.40214387  1
  H  H73  1  0.24768467  0.56691465  0.62169986  1
  N  N74  1  0.15114445  0.81136310  0.69782401  1
  C  C75  1  0.10146309  0.78782749  0.90820629  1
  C  C76  1  0.21495528  0.90715351  0.94774151  1
  N  N77  1  0.15731041  0.61808064  0.61018025  1
  N  N78  1  0.03082506  0.68287622  0.61679992  1
  H  H79  1  0.06565736  0.98974769  0.96513285  1
  C  C80  1  0.04285773  0.72851645  0.88177611  1
  Cu  Cu81  1  0.01172220  0.87996179  0.53011831  1
  C  C82  1  0.21142960  0.64195787  0.64033305  1
  H  H83  1  0.14515066  0.93099601  0.68986944  1
  C  C84  1  0.03885069  0.62445900  0.83189407  1
  N  N85  1  0.03308887  0.53491791  0.79101755  1
  H  H86  1  0.15147754  0.60468017  0.85256948  1
  C  C87  1  0.21026942  0.76623161  0.90742037  1
  N  N88  1  0.11731022  0.70435181  0.63931079  1
  H  H89  1  0.14985415  0.82181863  0.55317341  1
  C  C90  1  0.20994674  0.75673083  0.68966007  1
  C  C91  1  0.15401421  0.70203615  0.88979862  1
  C  C92  1  0.10581732  0.91893051  0.95221281  1
  Cu  Cu93  1  0.08214727  0.51429927  0.71550390  1
  H  H94  1  0.20663512  0.92651349  0.80641050  1
  H  H95  1  0.24980974  0.70261137  0.89196056  1
  C  C96  1  0.16089141  0.98731652  0.96575429  1
  C  C97  1  0.14004750  0.86426324  0.50281360  1
  H  H98  1  0.29897874  0.15589285  0.11027848  1
  H  H99  1  0.29117816  0.31366651  0.35088111  1
  C  C100  1  0.29304813  0.26802594  0.29801847  1
  H  H101  1  0.48475224  0.20389096  0.34758276  1
  C  C102  1  0.26933457  0.10235511  0.43834086  1
  H  H103  1  0.38992037  0.25305011  0.16694499  1
  N  N104  1  0.41786555  0.48617394  0.30119519  1
  C  C105  1  0.40272603  0.33777613  0.29801427  1
  C  C106  1  0.43960772  0.20514389  0.32499448  1
  C  C107  1  0.34667865  0.28596251  0.26169169  1
  N  N108  1  0.46669023  0.38561606  0.14943359  1
  H  H109  1  0.35717116  0.41318727  0.12138017  1
  C  C110  1  0.32722262  0.14362953  0.45359736  1
  C  C111  1  0.29695163  0.17825684  0.16271546  1
  N  N112  1  0.28077698  0.09657893  0.00879291  1
  C  C113  1  0.34777324  0.23525449  0.19548288  1
  N  N114  1  0.42487604  0.06298835  0.31011788  1
  H  H115  1  0.34490630  0.25726653  0.43793756  1
  H  H116  1  0.26498255  0.41397188  0.16876873  1
  Cu  Cu117  1  0.44059500  0.05691009  0.17468887  1
  N  N118  1  0.35365943  0.11310433  0.00951847  1
  N  N119  1  0.49261143  0.36546149  0.09254878  1
  C  C120  1  0.30271493  0.48558374  0.46884051  1
  C  C121  1  0.38341044  0.22939614  0.65835703  1
  C  C122  1  0.41157834  0.06681977  0.80694408  1
  C  C123  1  0.46125894  0.42799720  0.70458721  1
  C  C124  1  0.39682967  0.36699269  0.69482079  1
  H  H125  1  0.25957895  0.35262566  0.83148805  1
  H  H126  1  0.42062166  0.16358087  0.63817206  1
  C  C127  1  0.41594408  0.11568520  0.52257242  1
  N  N128  1  0.41794770  0.18660040  0.84423462  1
  N  N129  1  0.38768235  0.45244774  0.54038282  1
  C  C130  1  0.28239940  0.27734260  0.67620209  1
  H  H131  1  0.37995121  0.23421760  0.86179728  1
  H  H132  1  0.31507613  0.06840944  0.62619380  1
  C  C133  1  0.47308933  0.02099044  0.78069361  1
  C  C134  1  0.32666113  0.17724712  0.65015754  1
  N  N135  1  0.46087397  0.17725795  0.53707408  1
  C  C136  1  0.27522214  0.41991638  0.87408464  1
  C  C137  1  0.29407993  0.41981518  0.71363282  1
  H  H138  1  0.29841562  0.05603938  0.85477463  1
  C  C139  1  0.32640929  0.43947649  0.53030292  1
  H  H140  1  0.30017693  0.39944643  0.57531488  1
  C  C141  1  0.33217955  0.47518267  0.86838347  1
  H  H142  1  0.36020288  0.44108330  0.82862085  1
  C  C143  1  0.35315089  0.46302982  0.72367254  1
  N  N144  1  0.47522347  0.47000765  0.76362647  1
  H  H145  1  0.44056861  0.48649674  0.79142653  1
  H  H146  1  0.49896961  0.40397283  0.60126592  1
  H  H147  1  0.25688866  0.49704833  0.72822137  1
  H  H148  1  0.46915463  0.27410639  0.50366061  1
  H  H149  1  0.26547530  0.20047424  0.98816703  1
  C  C150  1  0.35989658  0.04970388  0.50065241  1
  H  H151  1  0.45287643  0.51249507  0.33055099  1
  N  N152  1  0.33190828  0.77649354  0.31288929  1
  N  N153  1  0.34207570  0.83231080  0.14281452  1
  C  C154  1  0.32854757  0.67962710  0.12869278  1
  N  N155  1  0.47044425  0.92133074  0.34758630  1
  H  H156  1  0.34406757  0.62706331  0.02317108  1
  N  N157  1  0.39911551  0.86690162  0.19632117  1
  H  H158  1  0.30780156  0.90974893  0.14631212  1
  C  C159  1  0.31940278  0.79665362  0.36523313  1
  Cu  Cu160  1  0.40187383  0.68403635  0.25460807  1
  N  N161  1  0.48416606  0.98809817  0.09770377  1
  H  H162  1  0.30740412  0.81457334  0.41665355  1
  C  C163  1  0.36592140  0.53773292  0.13520859  1
  Cu  Cu164  1  0.46282447  0.74286733  0.14669112  1
  N  N165  1  0.42029932  0.56054366  0.14912413  1
  H  H166  1  0.45125884  0.53392155  0.02859385  1
  C  C167  1  0.26407588  0.65551705  0.12556566  1
  H  H168  1  0.26313108  0.60671874  0.35279471  1
  N  N169  1  0.49796315  0.85291425  0.30549421  1
  N  N170  1  0.34942606  0.53808658  0.43531383  1
  Cu  Cu171  1  0.35723535  0.98025877  0.26201596  1
  H  H172  1  0.36088413  0.58186282  0.38878507  1
  N  N173  1  0.41400192  0.50745407  0.48995190  1
  H  H174  1  0.41449758  0.86668691  0.70548996  1
  C  C175  1  0.33408260  0.90818655  0.53112131  1
  C  C176  1  0.35850684  0.55261496  0.92381794  1
  H  H177  1  0.36040206  0.83088342  0.56486727  1
  H  H178  1  0.34701951  0.80943589  0.91608467  1
  C  C179  1  0.31945661  0.79952035  0.69769817  1
  H  H180  1  0.25368363  0.76620479  0.53884959  1
  C  C181  1  0.32212888  0.57366571  0.98054584  1
  H  H182  1  0.32625044  0.72183586  0.65223096  1
  C  C183  1  0.42165619  0.60841261  0.92615459  1
  C  C184  1  0.27618783  0.87370535  0.51883684  1
  N  N185  1  0.45282486  0.69073771  0.87986873  1
  C  C186  1  0.25117508  0.91834764  0.78402845  1
  C  C187  1  0.36968231  0.87395431  0.72503816  1
  H  H188  1  0.44136971  0.79257661  0.86435099  1
  C  C189  1  0.45854593  0.58624578  0.97972048  1
  C  C190  1  0.33176898  0.90955336  0.94868317  1
  C  C191  1  0.35972195  0.97183051  0.78190001  1
  H  H192  1  0.36141849  0.57888604  0.74763528  1
  C  C193  1  0.30288123  0.98369461  0.81071607  1
  C  C194  1  0.26141867  0.82668598  0.72604813  1
  H  H195  1  0.49139305  0.93886633  0.74231744  1
  C  C196  1  0.26462935  0.51279862  0.98427301  1
  C  C197  1  0.27448260  0.96473666  0.96846969  1
  N  N198  1  0.37635600  0.99854306  0.97677096  1
  H  H199  1  0.66932693  0.26305162  0.09918524  1
  H  H200  1  0.72830497  0.28375353  0.38325686  1
  C  C201  1  0.56490108  0.27249654  0.17147250  1
  C  C202  1  0.63008946  0.15067377  0.25630862  1
  C  C203  1  0.67648626  0.22685606  0.14963768  1
  H  H204  1  0.57318680  0.25736821  0.06342193  1
  C  C205  1  0.54631014  0.29466869  0.10590211  1
  C  C206  1  0.68755004  0.12921102  0.28426990  1
  H  H207  1  0.69463793  0.38546296  0.29692655  1
  H  H208  1  0.60304234  0.47356327  0.23200064  1
  N  N209  1  0.52080595  0.41281304  0.43184251  1
  N  N210  1  0.60622826  0.40374591  0.44254008  1
  N  N211  1  0.63937970  0.31910198  0.40448028  1
  H  H212  1  0.58697033  0.13250306  0.28116165  1
  C  C213  1  0.62505879  0.20406409  0.18998771  1
  C  C214  1  0.70861824  0.46088247  0.47017773  1
  C  C215  1  0.73473930  0.19947076  0.17458838  1
  C  C216  1  0.64870143  0.47353937  0.03682353  1
  N  N217  1  0.50314612  0.48364219  0.47784097  1
  C  C218  1  0.69865962  0.35039502  0.41891409  1
  H  H219  1  0.66423163  0.10050001  0.47130207  1
  H  H220  1  0.69794443  0.09464885  0.33654012  1
  C  C221  1  0.73509480  0.15255846  0.24049480  1
  C  C222  1  0.69692603  0.01229631  0.45546601  1
  N  N223  1  0.52023579  0.32598267  0.20814429  1
  H  H224  1  0.50408078  0.35105610  0.25204081  1
  C  C225  1  0.69361209  0.49709737  0.27007842  1
  C  C226  1  0.55446460  0.19811997  0.95867500  1
  H  H227  1  0.70496126  0.14046161  0.95421265  1
  C  C228  1  0.58602561  0.10266170  0.66851032  1
  N  N229  1  0.68768792  0.47233016  0.67783264  1
  N  N230  1  0.62116585  0.13346548  0.71455540  1
  C  C231  1  0.60079791  0.30730886  0.94965336  1
  Cu  Cu232  1  0.63971468  0.40355174  0.75270881  1
  C  C233  1  0.61464643  0.05668551  0.60305116  1
  N  N234  1  0.61066549  0.40260547  0.89805622  1
  Cu  Cu235  1  0.60449966  0.13915826  0.80593521  1
  H  H236  1  0.53860911  0.09399816  0.67994187  1
  N  N237  1  0.70449173  0.30311745  0.80248110  1
  Cu  Cu238  1  0.50299855  0.26440621  0.84502689  1
  H  H239  1  0.66205919  0.11404438  0.70160683  1
  H  H240  1  0.64261466  0.48325082  0.89356396  1
  C  C241  1  0.67952655  0.10070963  0.59089292  1
  N  N242  1  0.58027670  0.36056053  0.82435523  1
  H  H243  1  0.54206021  0.08158909  0.54118036  1
  N  N244  1  0.51091572  0.12177369  0.95276481  1
  N  N245  1  0.51886789  0.07987440  0.79273334  1
  C  C246  1  0.70571961  0.24666693  0.98635781  1
  N  N247  1  0.57513469  0.00701460  0.55325397  1
  C  C248  1  0.72670015  0.21280381  0.60338235  1
  C  C249  1  0.74922364  0.34756349  0.82029379  1
  C  C250  1  0.65271353  0.33625161  0.99718477  1
  H  H251  1  0.72561846  0.34218909  0.59591620  1
  H  H252  1  0.50136330  0.05090629  0.99330476  1
  C  C253  1  0.50129050  0.44682335  0.65087438  1
  C  C254  1  0.58522409  0.71640847  0.36122528  1
  C  C255  1  0.64289792  0.54599544  0.23318515  1
  H  H256  1  0.60369348  0.59887591  0.37234974  1
  C  C257  1  0.71887169  0.75738489  0.39410712  1
  N  N258  1  0.54116133  0.68796019  0.33336207  1
  C  C259  1  0.58954314  0.75360424  0.16710987  1
  N  N260  1  0.53395226  0.93724096  0.10509196  1
  C  C261  1  0.61595330  0.88435037  0.38824123  1
  C  C262  1  0.64348117  0.69773357  0.20300287  1
  C  C263  1  0.58602669  0.87622961  0.11860816  1
  N  N264  1  0.53872319  0.69397284  0.18490455  1
  H  H265  1  0.70191366  0.60843120  0.10985648  1
  C  C266  1  0.67875719  0.88396941  0.40852509  1
  H  H267  1  0.62161670  0.94839895  0.09849376  1
  H  H268  1  0.53759034  0.59882406  0.21437228  1
  C  C269  1  0.69084466  0.81287858  0.20850759  1
  H  H270  1  0.67831073  0.94299440  0.19885332  1
  H  H271  1  0.70369019  0.65260276  0.36627810  1
  C  C272  1  0.70114348  0.51469606  0.07009551  1
  C  C273  1  0.74505406  0.59641997  0.26806581  1
  N  N274  1  0.58265961  0.99024656  0.41058763  1
  C  C275  1  0.73874804  0.75783104  0.24226812  1
  H  H276  1  0.60614452  0.54986492  0.04143148  1
  H  H277  1  0.53917985  0.95917813  0.40027415  1
  N  N278  1  0.65575759  0.50596175  0.49453667  1
  N  N279  1  0.65849132  0.77576655  0.92979955  1
  N  N280  1  0.61854518  0.78360482  0.81956135  1
  C  C281  1  0.67982071  0.81580588  0.82639295  1
  C  C282  1  0.71543343  0.86731384  0.63939480  1
  N  N283  1  0.59896215  0.75804976  0.87789859  1
  C  C284  1  0.70361995  0.80154521  0.88871341  1
  H  H285  1  0.64945955  0.79519895  0.97914315  1
  H  H286  1  0.70215860  0.84737582  0.78213510  1
  H  H287  1  0.72439424  0.70658096  0.55529697  1
  H  H288  1  0.71397025  0.74621672  0.65664291  1
  N  N289  1  0.59225181  0.61560071  0.67663895  1
  N  N290  1  0.66153242  0.56740130  0.64328791  1
  N  N291  1  0.52096031  0.69618398  0.91375971  1
  N  N292  1  0.51463079  0.64175603  0.97240571  1
  C  C293  1  0.66919158  0.93974334  0.60452272  1
  Cu  Cu294  1  0.54937311  0.54882283  0.79277958  1
  H  H295  1  0.59138873  0.95929387  0.51122570  1
  N  N296  1  0.55185392  0.52579051  0.65856924  1
  H  H297  1  0.63077922  0.55403046  0.53073428  1
  H  H298  1  0.87899534  0.35896430  0.07364181  1
  C  C299  1  0.84748699  0.08814038  0.21625161  1
  N  N300  1  0.93964986  0.11754908  0.48869456  1
  N  N301  1  0.84099987  0.45753612  0.31719047  1
  C  C302  1  0.80213214  0.13128921  0.26247672  1
  H  H303  1  0.77731159  0.21350897  0.14618589  1
  N  N304  1  0.80728422  0.09199342  0.32466805  1
  H  H305  1  0.79922437  0.24422423  0.00536734  1
  N  N306  1  0.87371157  0.05841276  0.16854232  1
  H  H307  1  0.84604577  0.04562575  0.33792077  1
  C  C308  1  0.88331196  0.09167366  0.49074417  1
  H  H309  1  0.82087756  0.35744001  0.43139274  1
  H  H310  1  0.98044724  0.48008898  0.12894680  1
  C  C311  1  0.75779143  0.30571729  0.01493149  1
  H  H312  1  0.92113887  0.05027977  0.18211547  1
  C  C313  1  0.82153333  0.43199621  0.47424609  1
  C  C314  1  0.75540055  0.01688081  0.47065771  1
  C  C315  1  0.75716645  0.44338842  0.05595763  1
  N  N316  1  0.99664949  0.20379931  0.10101451  1
  H  H317  1  0.91756718  0.44120201  0.48374557  1
  N  N318  1  0.87181143  0.46979731  0.05738273  1
  C  C319  1  0.84128928  0.41660973  0.71886301  1
  H  H320  1  0.87303708  0.13712236  0.70120072  1
  C  C321  1  0.93925064  0.21454193  0.97402577  1
  H  H322  1  0.77923918  0.46431970  0.92361912  1
  H  H323  1  0.94817376  0.07530977  0.60001747  1
  C  C324  1  0.90371071  0.29719036  0.80458828  1
  C  C325  1  0.77183600  0.12969784  0.63707920  1
  C  C326  1  0.98924515  0.13935345  0.61112772  1
  N  N327  1  0.95570495  0.34826658  0.95239306  1
  C  C328  1  0.88949241  0.39015737  0.67525991  1
  H  H329  1  0.90742922  0.24521893  0.85377952  1
  C  C330  1  0.94687748  0.24665467  0.76073089  1
  C  C331  1  0.80634758  0.41089066  0.83996862  1
  Cu  Cu332  1  0.97942265  0.44971532  0.86790083  1
  C  C333  1  0.85146213  0.38585511  0.78559248  1
  H  H334  1  0.88713047  0.42839810  0.62390558  1
  C  C335  1  0.94117479  0.30797107  0.69567649  1
  H  H336  1  0.76431844  0.07405575  0.84708468  1
  H  H337  1  0.81178699  0.18845688  0.65419665  1
  H  H338  1  0.85526231  0.18031146  0.50911474  1
  H  H339  1  0.79891063  0.45750289  0.70127861  1
  N  N340  1  0.81696164  0.47144587  0.89850848  1
  H  H341  1  0.85096330  0.19837297  0.91146685  1
  C  C342  1  0.83651687  0.07345907  0.92041562  1
  C  C343  1  0.99636624  0.27512117  0.65462078  1
  C  C344  1  0.91987870  0.06810777  0.99721196  1
  H  H345  1  0.98522229  0.18024514  0.77229403  1
  C  C346  1  0.78488594  0.01445437  0.89035229  1
  C  C347  1  0.86349030  0.01413371  0.71799431  1
  H  H348  1  0.99138547  0.47278023  0.57166053  1
  H  H349  1  0.99315814  0.37350893  0.98524126  1
  H  H350  1  0.76764608  0.11380407  0.50597864  1
  C  C351  1  0.87339424  0.48683989  0.50152001  1
  N  N352  1  0.87941494  0.68206925  0.13345507  1
  H  H353  1  0.92205354  0.79699373  0.40330620  1
  C  C354  1  0.80105133  0.91362634  0.44227969  1
  C  C355  1  0.78012250  0.77499347  0.40845938  1
  N  N356  1  0.91314477  0.60214739  0.09680481  1
  H  H357  1  0.94263713  0.72755187  0.29636686  1
  H  H358  1  0.77280639  0.84829898  0.25454269  1
  N  N359  1  0.89647338  0.73162506  0.30169967  1
  C  C360  1  0.81479395  0.50955803  0.07979350  1
  H  H361  1  0.92338204  0.95456247  0.07979942  1
  H  H362  1  0.85746773  0.78189408  0.03782685  1
  N  N363  1  0.91171209  0.86945891  0.44012888  1
  N  N364  1  0.95183133  0.98309376  0.04550708  1
  H  H365  1  0.78768450  0.68741899  0.15956707  1
  C  C366  1  0.82043706  0.63356945  0.12645423  1
  C  C367  1  0.86589700  0.59167273  0.30730132  1
  H  H368  1  0.88410751  0.80475419  0.26140500  1
  H  H369  1  0.80748489  0.67350730  0.39148370  1
  C  C370  1  0.80406110  0.55130100  0.29232577  1
  C  C371  1  0.86248737  0.95035792  0.45519785  1
  N  N372  1  0.97183496  0.98208700  0.46382010  1
  C  C373  1  0.76731044  0.50571710  0.49801767  1
  C  C374  1  0.76261546  0.86657250  0.91612425  1
  C  C375  1  0.83853565  0.84756066  0.99770158  1
  C  C376  1  0.92958728  0.64714422  0.57987841  1
  C  C377  1  0.76475753  0.96616550  0.65397896  1
  H  H378  1  0.82036707  0.80752406  0.59633810  1
  N  N379  1  0.90079762  0.96605744  0.76129641  1
  C  C380  1  0.76810455  0.63984550  0.54135650  1
  N  N381  1  0.81928205  0.77779583  0.72603158  1
  C  C382  1  0.81998817  0.69790063  0.56962937  1
  C  C383  1  0.87194426  0.60839826  0.55163924  1
  H  H384  1  0.97707745  0.80689088  0.95270919  1
  H  H385  1  0.79749974  0.67124561  0.73161510  1
  H  H386  1  0.89864247  0.80603240  0.66260754  1
  C  C387  1  0.93533712  0.74860458  0.63366005  1
  C  C388  1  0.86479575  0.98874995  0.97265312  1
  N  N389  1  0.93470785  0.63885213  0.87683908  1
  N  N390  1  0.88215293  0.80866807  0.77614553  1
  C  C391  1  0.81512148  0.90925578  0.69402374  1
  Cu  Cu392  1  0.86888420  0.77613518  0.86631637  1
  Cu  Cu393  1  0.94429928  0.65446448  0.78233899  1
  C  C394  1  0.78845309  0.77977590  0.96903490  1
  N  N395  1  0.98998029  0.74567568  0.91214338  1
  N  N396  1  0.98607786  0.59024716  0.56091770  1
  H  H397  1  0.76625216  0.67845151  0.99187606  1
  N  N398  1  0.99266452  0.75833387  0.65133733  1
  Cu  Cu399  1  0.88912419  0.54138372  0.94221086  1
