# generated using pymatgen
data_Cu3H24C42(NO6)2
_symmetry_space_group_name_H-M   'P 1'
_cell_length_a   32.40786256
_cell_length_b   32.50677142
_cell_length_c   8.31778265
_cell_angle_alpha   90.00000000
_cell_angle_beta   90.00000000
_cell_angle_gamma   90.00000000
_symmetry_Int_Tables_number   1
_chemical_formula_structural   Cu3H24C42(NO6)2
_chemical_formula_sum   'Cu24 H192 C336 N16 O96'
_cell_volume   8762.57591919
_cell_formula_units_Z   8
loop_
 _symmetry_equiv_pos_site_id
 _symmetry_equiv_pos_as_xyz
  1  'x, y, z'
loop_
 _atom_site_type_symbol
 _atom_site_label
 _atom_site_symmetry_multiplicity
 _atom_site_fract_x
 _atom_site_fract_y
 _atom_site_fract_z
 _atom_site_occupancy
  O  O0  1  0.22724564  0.03364062  0.40599268  1
  C  C1  1  0.18959723  0.04157946  0.47417630  1
  H  H2  1  0.15307184  0.00678519  0.20675943  1
  O  O3  1  0.17762838  0.07523596  0.47978137  1
  O  O4  1  0.18632377  0.44476071  0.09614205  1
  C  C5  1  0.03883693  0.44482864  0.31148726  1
  C  C6  1  0.22449451  0.47880861  0.29606052  1
  C  C7  1  0.01438223  0.38570129  0.14621285  1
  O  O8  1  0.15468355  0.46020321  0.32319893  1
  C  C9  1  0.22614749  0.49989483  0.44411269  1
  H  H10  1  0.04767887  0.30295770  0.33973042  1
  H  H11  1  0.21746994  0.32984998  0.42020694  1
  H  H12  1  0.09392881  0.27233463  0.06465319  1
  C  C13  1  0.06112272  0.32608922  0.08370833  1
  C  C14  1  0.15484212  0.31010416  0.03744141  1
  H  H15  1  0.14671845  0.35289298  0.42401429  1
  H  H16  1  0.11042926  0.40434955  0.30606226  1
  C  C17  1  0.19414081  0.29316121  0.03965926  1
  C  C18  1  0.09335540  0.34741173  0.17076846  1
  C  C19  1  0.21480470  0.29716152  0.19031835  1
  H  H20  1  0.09605113  0.28934295  0.36115994  1
  O  O21  1  0.07002380  0.45939658  0.39212597  1
  O  O22  1  0.00487126  0.45916454  0.30705108  1
  N  N23  1  0.07044392  0.29651801  0.43030370  1
  H  H24  1  0.01129695  0.28159917  0.44384133  1
  C  C25  1  0.04732260  0.40322683  0.22631656  1
  C  C26  1  0.18571663  0.46060540  0.23588516  1
  C  C27  1  0.19918001  0.32196992  0.31560898  1
  C  C28  1  0.02201415  0.34645501  0.08558820  1
  C  C29  1  0.13735069  0.33250616  0.17284476  1
  C  C30  1  0.08592900  0.38546889  0.24384228  1
  C  C31  1  0.15973526  0.33941365  0.31553172  1
  H  H32  1  0.04479137  0.26747897  0.00826738  1
  N  N33  1  0.06871710  0.28730852  0.02446271  1
  H  H34  1  0.16868319  0.20234915  0.59264708  1
  C  C35  1  0.18037841  0.07689333  0.95339927  1
  C  C36  1  0.16424657  0.03735183  0.95799238  1
  C  C37  1  0.12079840  0.03390862  0.93247099  1
  C  C38  1  0.17387708  0.23562990  0.61175627  1
  C  C39  1  0.15594475  0.11058634  0.90591732  1
  O  O40  1  0.21548471  0.15789249  0.89109924  1
  H  H41  1  0.18391521  0.00907165  0.98450461  1
  C  C42  1  0.11300616  0.10767836  0.87801558  1
  H  H43  1  0.06230454  0.06636386  0.87585899  1
  C  C44  1  0.09530917  0.06982779  0.89886569  1
  H  H45  1  0.09402443  0.13441534  0.83669696  1
  O  O46  1  0.15161511  0.18129160  0.87564605  1
  C  C47  1  0.17424083  0.15223138  0.88788114  1
  O  O48  1  0.24053391  0.18231976  0.58373175  1
  H  H49  1  0.21389239  0.08001949  0.98521676  1
  H  H50  1  0.04502896  0.00305928  0.82647170  1
  C  C51  1  0.12047805  0.00882255  0.55154673  1
  H  H52  1  0.10453505  0.03837272  0.56201910  1
  H  H53  1  0.10803230  0.24844441  0.60848173  1
  C  C54  1  0.21512850  0.24863679  0.61040978  1
  C  C55  1  0.24976556  0.21971323  0.60301138  1
  C  C56  1  0.16241503  0.00454054  0.51212796  1
  H  H57  1  0.21092317  0.28056746  0.93450676  1
  C  C58  1  0.03735066  0.35192160  0.58214787  1
  C  C59  1  0.07152440  0.32466083  0.55411565  1
  C  C60  1  0.14506034  0.30500452  0.63833735  1
  C  C61  1  0.07858726  0.39164827  0.76928875  1
  Cu  Cu62  1  0.16351117  0.47170157  0.91719618  1
  C  C63  1  0.08353424  0.42987808  0.86949697  1
  C  C64  1  0.22007233  0.29165061  0.64805655  1
  C  C65  1  0.11321544  0.36581643  0.75005538  1
  H  H66  1  0.01784396  0.40981071  0.69387299  1
  C  C67  1  0.18676560  0.31851776  0.65643093  1
  C  C68  1  0.04221223  0.38538096  0.68085688  1
  H  H69  1  0.01498171  0.31411589  0.76665036  1
  H  H70  1  0.13733447  0.30805237  0.92276227  1
  O  O71  1  0.05816910  0.45542607  0.88359531  1
  C  C72  1  0.10840469  0.33291544  0.64538986  1
  O  O73  1  0.11944132  0.43363354  0.94501063  1
  H  H74  1  0.19145362  0.35174338  0.68423300  1
  H  H75  1  0.14345255  0.37085063  0.80916551  1
  C  C76  1  0.13936184  0.26182903  0.61518399  1
  H  H77  1  0.19664604  0.49941822  0.50786793  1
  Cu  Cu78  1  0.17357877  0.67924560  0.31780012  1
  O  O79  1  0.14106876  0.72103422  0.30750068  1
  O  O80  1  0.21322849  0.63706216  0.31189331  1
  C  C81  1  0.10569820  0.71677718  0.24350708  1
  O  O82  1  0.08143866  0.68994972  0.29008796  1
  Cu  Cu83  1  0.10681480  0.64189639  0.38223552  1
  O  O84  1  0.09974984  0.60174124  0.22500969  1
  C  C85  1  0.07175062  0.57499616  0.24389944  1
  C  C86  1  0.03050237  0.58705979  0.18673437  1
  O  O87  1  0.07476455  0.54235762  0.32353102  1
  C  C88  1  0.02280717  0.62591219  0.11963280  1
  H  H89  1  0.24283859  0.57759337  0.13381304  1
  H  H90  1  0.03367421  0.66914525  0.45867933  1
  Cu  Cu91  1  0.23240096  0.72715644  0.43457749  1
  H  H92  1  0.04896886  0.64855473  0.10706088  1
  H  H93  1  0.03007150  0.72465397  0.08328159  1
  Cu  Cu94  1  0.11101758  0.50006474  0.31886139  1
  H  H95  1  0.00596904  0.52995920  0.26396819  1
  C  C96  1  0.23600943  0.70345723  0.02551245  1
  C  C97  1  0.09519715  0.74477406  0.11552761  1
  C  C98  1  0.05537872  0.74408905  0.04016918  1
  H  H99  1  0.20365786  0.64459713  0.00695372  1
  H  H100  1  0.23774712  0.87955187  0.29246474  1
  C  C101  1  0.12196711  0.96387065  0.06374259  1
  O  O102  1  0.01557987  0.84534868  0.19594106  1
  C  C103  1  0.12749995  0.77075572  0.06414379  1
  C  C104  1  0.10895609  0.92150469  0.08063006  1
  H  H105  1  0.18443606  0.93037936  0.13838375  1
  C  C106  1  0.12098666  0.84966412  0.23463952  1
  C  C107  1  0.04246723  0.84238973  0.47661051  1
  H  H108  1  0.13581726  0.79506358  0.37857293  1
  C  C109  1  0.06164252  0.88144130  0.46224352  1
  C  C110  1  0.20481673  0.87359185  0.27693787  1
  C  C111  1  0.18800115  0.83617615  0.34136073  1
  H  H112  1  0.15176179  0.96173830  0.28083401  1
  C  C113  1  0.13526270  0.88894325  0.16518667  1
  H  H114  1  0.21642869  0.96700789  0.47748240  1
  H  H115  1  0.05735894  0.90176644  0.35676907  1
  H  H116  1  0.15801432  0.76620327  0.12563242  1
  H  H117  1  0.08851473  0.84070126  0.22047187  1
  C  C118  1  0.01610695  0.82674599  0.33721277  1
  O  O119  1  0.20397513  0.77587646  0.47805463  1
  C  C120  1  0.14586712  0.82396900  0.32325079  1
  N  N121  1  0.14947442  0.97680704  0.17720946  1
  C  C122  1  0.21700716  0.81055442  0.42644030  1
  C  C123  1  0.17762135  0.89866435  0.19189905  1
  C  C124  1  0.18103244  0.68950244  0.82269384  1
  C  C125  1  0.16550929  0.54286667  0.76013333  1
  C  C126  1  0.14286739  0.58363502  0.73990427  1
  C  C127  1  0.16898828  0.61726442  0.75611869  1
  H  H128  1  0.20199638  0.61202773  0.78375402  1
  C  C129  1  0.18205355  0.73129188  0.76385770  1
  C  C130  1  0.15231024  0.65667263  0.75703656  1
  C  C131  1  0.10962948  0.66048113  0.71118617  1
  C  C132  1  0.10077471  0.58530812  0.72352345  1
  C  C133  1  0.08444482  0.62508107  0.69976741  1
  C  C134  1  0.03866155  0.62333037  0.65877406  1
  H  H135  1  0.08163438  0.55766617  0.72012363  1
  H  H136  1  0.03224178  0.58331899  0.86835388  1
  H  H137  1  0.05798436  0.70096811  0.73384873  1
  H  H138  1  0.09918973  0.71763739  0.82714458  1
  N  N139  1  0.08994994  0.69843834  0.73987135  1
  O  O140  1  0.20161014  0.54104971  0.76294385  1
  H  H141  1  0.15934184  0.74130212  0.66961893  1
  C  C142  1  0.23606381  0.74472935  0.96225310  1
  C  C143  1  0.20648000  0.67706121  0.95613349  1
  C  C144  1  0.01670487  0.59656333  0.75937855  1
  O  O145  1  0.14297430  0.50886329  0.76982624  1
  C  C146  1  0.01782630  0.64729402  0.53421910  1
  H  H147  1  0.17452588  0.90027945  0.52338255  1
  C  C148  1  0.07700893  0.82890390  0.73155574  1
  C  C149  1  0.10281550  0.99273784  0.95053191  1
  C  C150  1  0.21181881  0.75744569  0.82712604  1
  C  C151  1  0.01300531  0.93217759  0.81392870  1
  C  C152  1  0.05089428  0.94064712  0.91442902  1
  C  C153  1  0.05012445  0.77254775  0.92163769  1
  C  C154  1  0.07329763  0.91041249  0.99844005  1
  H  H155  1  0.13166997  0.86606278  0.90491114  1
  C  C156  1  0.09375440  0.89186575  0.56480332  1
  C  C157  1  0.06344329  0.98146520  0.89788656  1
  O  O158  1  0.24414707  0.98069955  0.84179907  1
  C  C159  1  0.10087177  0.86594592  0.70109239  1
  H  H160  1  0.21490225  0.78809040  0.77944888  1
  C  C161  1  0.04884282  0.81795657  0.60726177  1
  C  C162  1  0.12276282  0.79671852  0.93288819  1
  H  H163  1  0.03072343  0.79019698  0.61575893  1
  C  C164  1  0.08366125  0.79601398  0.85527812  1
  N  N165  1  0.13585157  0.87478784  0.79022033  1
  H  H166  1  0.01946927  0.77616057  0.86437896  1
  H  H167  1  0.15068904  0.81494374  0.88968056  1
  H  H168  1  0.14358609  0.90613417  0.79910999  1
  H  H169  1  0.06521407  0.87742783  0.99303366  1
  C  C170  1  0.09642119  0.97281890  0.54831362  1
  C  C171  1  0.11618007  0.93342038  0.54436166  1
  H  H172  1  0.06351215  0.97300216  0.57031999  1
  C  C173  1  0.15941733  0.93167626  0.52652055  1
  C  C174  1  0.18377916  0.96759586  0.50629885  1
  C  C175  1  0.39554089  0.10740657  0.27726655  1
  C  C176  1  0.35620337  0.11896733  0.23225355  1
  C  C177  1  0.33693838  0.10198563  0.09191210  1
  H  H178  1  0.41002905  0.12455355  0.38157562  1
  C  C179  1  0.41544574  0.07506008  0.19294083  1
  C  C180  1  0.45849048  0.06284212  0.22944808  1
  O  O181  1  0.28028187  0.14284121  0.14942076  1
  Cu  Cu182  1  0.27905129  0.20089895  0.11970996  1
  C  C183  1  0.40785267  0.20967640  0.22904058  1
  C  C184  1  0.36263995  0.21589189  0.24959978  1
  O  O185  1  0.33812775  0.20632270  0.13603446  1
  C  C186  1  0.42382920  0.18655689  0.09955379  1
  C  C187  1  0.43425060  0.22297457  0.35562624  1
  H  H188  1  0.34216185  0.14337877  0.30296041  1
  C  C189  1  0.47694406  0.21541548  0.34634255  1
  C  C190  1  0.47672301  0.06678616  0.38158678  1
  C  C191  1  0.39349031  0.05786751  0.05843795  1
  C  C192  1  0.46554740  0.18071073  0.07849331  1
  C  C193  1  0.29525508  0.11750153  0.05172786  1
  O  O194  1  0.34902734  0.22343035  0.38894555  1
  C  C195  1  0.49254084  0.19535360  0.20400742  1
  C  C196  1  0.48679460  0.05285341  0.09539384  1
  H  H197  1  0.46064792  0.08292170  0.48067639  1
  C  C198  1  0.35465783  0.07041390  0.00431286  1
  H  H199  1  0.41997114  0.23821885  0.45284696  1
  H  H200  1  0.49916406  0.23085860  0.43527886  1
  H  H201  1  0.40630669  0.02970777  0.01168749  1
  H  H202  1  0.40164770  0.17275870  0.01401424  1
  C  C203  1  0.25852208  0.47662137  0.19151024  1
  H  H204  1  0.37616843  0.47648851  0.37870538  1
  O  O205  1  0.27166616  0.25622963  0.11084195  1
  C  C206  1  0.25444877  0.27800145  0.21509996  1
  O  O207  1  0.40006541  0.31906357  0.47259528  1
  Cu  Cu208  1  0.31806552  0.26573291  0.48487058  1
  C  C209  1  0.29498248  0.49317053  0.25310848  1
  H  H210  1  0.25675583  0.45970505  0.07789590  1
  O  O211  1  0.27150468  0.28424340  0.34790075  1
  O  O212  1  0.44902894  0.46446455  0.39654034  1
  Cu  Cu213  1  0.49524939  0.44046905  0.30722151  1
  H  H214  1  0.32496265  0.48989921  0.18402195  1
  C  C215  1  0.45001569  0.49600967  0.48942341  1
  C  C216  1  0.36077866  0.16115626  0.62666849  1
  C  C217  1  0.43523812  0.15849279  0.67123515  1
  C  C218  1  0.39822827  0.18074623  0.63679892  1
  C  C219  1  0.36068242  0.11747807  0.62589458  1
  C  C220  1  0.32225936  0.09414226  0.60885689  1
  O  O221  1  0.28898543  0.11440538  0.60702371  1
  C  C222  1  0.39636899  0.09312999  0.65043274  1
  C  C223  1  0.43350789  0.11453348  0.66912576  1
  H  H224  1  0.33274011  0.17895878  0.59610885  1
  H  H225  1  0.40295628  0.21458860  0.62135171  1
  C  C226  1  0.47424237  0.18487407  0.66596337  1
  C  C227  1  0.47561894  0.22906554  0.68548318  1
  H  H228  1  0.46190607  0.09708607  0.69341903  1
  H  H229  1  0.39227228  0.06057859  0.66465267  1
  O  O230  1  0.32448893  0.05571176  0.58760521  1
  O  O231  1  0.28728634  0.22998657  0.62435524  1
  H  H232  1  0.33884834  0.05287513  0.90498429  1
  O  O233  1  0.27542569  0.10515422  0.93060517  1
  H  H234  1  0.45260074  0.08044810  0.92003228  1
  Cu  Cu235  1  0.25606228  0.14094699  0.75295431  1
  N  N236  1  0.47990885  0.06316637  0.94074304  1
  Cu  Cu237  1  0.27272582  0.03984491  0.50970093  1
  H  H238  1  0.41969568  0.01406435  0.55647141  1
  H  H239  1  0.42499047  0.23881119  0.83281839  1
  H  H240  1  0.47650600  0.16172706  0.96889079  1
  N  N241  1  0.43747573  0.24553955  0.72426429  1
  H  H242  1  0.42871970  0.27716325  0.72416361  1
  H  H243  1  0.48421430  0.37847630  0.91665971  1
  C  C244  1  0.49753596  0.31647642  0.81604349  1
  H  H245  1  0.31909606  0.37627115  0.76039598  1
  H  H246  1  0.33837987  0.49504740  0.74636777  1
  H  H247  1  0.47555689  0.29807054  0.89218517  1
  O  O248  1  0.33585946  0.31630529  0.57047711  1
  H  H249  1  0.33256302  0.44262297  0.89921649  1
  H  H250  1  0.25162880  0.30150673  0.67300598  1
  H  H251  1  0.46134730  0.43547103  0.71454199  1
  C  C252  1  0.34940642  0.38794282  0.74425227  1
  C  C253  1  0.38085700  0.36986108  0.65326651  1
  C  C254  1  0.43028850  0.42307673  0.72698119  1
  C  C255  1  0.39838716  0.44278392  0.81499706  1
  C  C256  1  0.42090378  0.38660018  0.64972847  1
  H  H257  1  0.44514594  0.37253725  0.57285146  1
  C  C258  1  0.44472775  0.49613987  0.92236669  1
  H  H259  1  0.47068289  0.47605465  0.88770492  1
  C  C260  1  0.35772363  0.42522003  0.82790288  1
  C  C261  1  0.37309813  0.33076217  0.56124185  1
  C  C262  1  0.40374179  0.48421936  0.89250518  1
  C  C263  1  0.28492702  0.62416509  0.23815484  1
  H  H264  1  0.33303931  0.66440366  0.31189495  1
  C  C265  1  0.32602248  0.63476414  0.25209203  1
  H  H266  1  0.43149308  0.58008784  0.16677012  1
  C  C267  1  0.27453328  0.58907514  0.14141418  1
  C  C268  1  0.35898933  0.61265700  0.18082468  1
  H  H269  1  0.38591211  0.71069240  0.41112918  1
  H  H270  1  0.39174423  0.62459498  0.17597000  1
  C  C271  1  0.34872374  0.57652165  0.09080199  1
  C  C272  1  0.42474019  0.55464837  0.08076663  1
  C  C273  1  0.30582154  0.56616637  0.07666274  1
  O  O274  1  0.26020009  0.67881728  0.39623075  1
  H  H275  1  0.41259278  0.64044933  0.43446191  1
  C  C276  1  0.45563156  0.53107331  0.01152371  1
  C  C277  1  0.38235170  0.54832406  0.03985418  1
  C  C278  1  0.25048911  0.64719152  0.31618435  1
  C  C279  1  0.49951686  0.54079953  0.04911470  1
  C  C280  1  0.29710897  0.51039102  0.41009899  1
  H  H281  1  0.29955263  0.53731422  0.01219953  1
  H  H282  1  0.25980093  0.69543964  0.12211517  1
  C  C283  1  0.37493599  0.50509067  0.45264843  1
  H  H284  1  0.27640961  0.58173119  0.47401757  1
  C  C285  1  0.33708227  0.52515908  0.48274421  1
  C  C286  1  0.26735164  0.77277860  0.01701882  1
  N  N287  1  0.43024202  0.97262419  0.07016979  1
  H  H288  1  0.28670659  0.96643443  0.06135576  1
  Cu  Cu289  1  0.29341375  0.78134457  0.34904429  1
  C  C290  1  0.47304026  0.97830978  0.49128044  1
  O  O291  1  0.25546631  0.81746870  0.41093606  1
  C  C292  1  0.35407986  0.93856960  0.25263439  1
  O  O293  1  0.45333584  0.87492430  0.09574909  1
  H  H294  1  0.29304460  0.95834818  0.33920733  1
  H  H295  1  0.43944446  0.97588419  0.18386227  1
  C  C296  1  0.35345065  0.95889580  0.08861644  1
  H  H297  1  0.41765357  0.91656697  0.21847200  1
  C  C298  1  0.39135915  0.91903318  0.29939091  1
  O  O299  1  0.29034251  0.76090472  0.13495247  1
  C  C300  1  0.39458504  0.89966580  0.45242640  1
  H  H301  1  0.48498158  0.99790915  0.39849137  1
  O  O302  1  0.33885562  0.76657680  0.47734060  1
  C  C303  1  0.31985383  0.91536072  0.49992589  1
  C  C304  1  0.31816037  0.93756604  0.35618487  1
  H  H305  1  0.45862430  0.97473733  0.01060464  1
  C  C306  1  0.48620280  0.87700814  0.02664803  1
  C  C307  1  0.39171816  0.96553341  0.00189271  1
  C  C308  1  0.31666536  0.96683807  0.00172475  1
  C  C309  1  0.34576431  0.64327119  0.78174967  1
  H  H310  1  0.33512555  0.62597960  0.88506544  1
  C  C311  1  0.33329964  0.68402039  0.76477514  1
  H  H312  1  0.30892903  0.69662250  0.84541013  1
  C  C313  1  0.37192691  0.62676685  0.65516880  1
  H  H314  1  0.33032874  0.54367322  0.80547730  1
  C  C315  1  0.37281301  0.58048311  0.61823621  1
  H  H316  1  0.43803934  0.57069908  0.65505395  1
  C  C317  1  0.40973410  0.55790710  0.60667717  1
  C  C318  1  0.34623978  0.70697301  0.63100112  1
  N  N319  1  0.29745192  0.58617082  0.56569617  1
  C  C320  1  0.37383919  0.51555655  0.92682983  1
  O  O321  1  0.48194257  0.50729740  0.54909539  1
  C  C322  1  0.33449413  0.56387887  0.56245472  1
  C  C323  1  0.38808492  0.65022359  0.52504573  1
  C  C324  1  0.41080590  0.51987985  0.52066947  1
  H  H325  1  0.30074401  0.61722939  0.58221406  1
  N  N326  1  0.33547730  0.51437252  0.84955249  1
  C  C327  1  0.37371670  0.68980992  0.51381018  1
  H  H328  1  0.26492643  0.52717115  0.63369977  1
  C  C329  1  0.26207653  0.51608483  0.50781305  1
  C  C330  1  0.33074891  0.74914078  0.61023586  1
  H  H331  1  0.48268716  0.74373110  0.81455907  1
  C  C332  1  0.49978266  0.77085865  0.83764050  1
  C  C333  1  0.43965943  0.98808691  0.58887910  1
  Cu  Cu334  1  0.31025692  0.81645843  0.78235670  1
  H  H335  1  0.49886530  0.88406403  0.68318782  1
  C  C336  1  0.48339595  0.91491758  0.65855740  1
  C  C337  1  0.45217075  0.92715020  0.76175348  1
  C  C338  1  0.42917489  0.96359971  0.72953856  1
  O  O339  1  0.32394488  0.87328524  0.77933440  1
  C  C340  1  0.48130561  0.80539401  0.90206946  1
  H  H341  1  0.44455212  0.90763201  0.86486904  1
  O  O342  1  0.39161263  0.86352407  0.75284877  1
  C  C343  1  0.35482082  0.97659005  0.74782307  1
  O  O344  1  0.30778362  0.76264188  0.71950317  1
  O  O345  1  0.27432857  0.98652730  0.60926391  1
  H  H346  1  0.29079858  0.91357307  0.58097557  1
  H  H347  1  0.35406817  0.97410615  0.61903436  1
  C  C348  1  0.27542604  0.97925700  0.76882228  1
  C  C349  1  0.36052881  0.87841188  0.70371822  1
  C  C350  1  0.39135102  0.97120157  0.83020222  1
  C  C351  1  0.31824454  0.97445272  0.83726458  1
  O  O352  1  0.27241784  0.80898324  0.95636187  1
  H  H353  1  0.44845270  0.80581721  0.94842792  1
  C  C354  1  0.35764886  0.89890380  0.54237130  1
  C  C355  1  0.49395832  0.94042266  0.52874218  1
  H  H356  1  0.42223061  0.88546323  0.50026245  1
  C  C357  1  0.53954429  0.19986030  0.18346392  1
  C  C358  1  0.56398895  0.16439601  0.20145886  1
  C  C359  1  0.54102415  0.03298895  0.28173706  1
  H  H360  1  0.55147657  0.13442880  0.24167806  1
  H  H361  1  0.57198190  0.02168943  0.32262191  1
  C  C362  1  0.51641469  0.05129801  0.39745164  1
  C  C363  1  0.60570079  0.16559363  0.17186806  1
  C  C364  1  0.62434052  0.20141027  0.11426280  1
  C  C365  1  0.63559676  0.13025256  0.20852966  1
  H  H366  1  0.65798011  0.20280610  0.09218852  1
  O  O367  1  0.67137665  0.13377897  0.18693997  1
  O  O368  1  0.61681745  0.09942274  0.27515588  1
  C  C369  1  0.52631045  0.03347320  0.12162122  1
  C  C370  1  0.68559927  0.02080709  0.39803878  1
  O  O371  1  0.69651709  0.03135889  0.26891127  1
  C  C372  1  0.55863888  0.23838396  0.13648952  1
  C  C373  1  0.60278522  0.23853078  0.09592498  1
  O  O374  1  0.64792615  0.02681546  0.45405486  1
  H  H375  1  0.61060787  0.02432243  0.14883266  1
  C  C376  1  0.55551161  0.01180560  0.01241551  1
  C  C377  1  0.59817002  0.00503253  0.05230582  1
  O  O378  1  0.74861092  0.18162017  0.47412116  1
  Cu  Cu379  1  0.61732531  0.07726108  0.48860529  1
  C  C380  1  0.73431632  0.32674599  0.44343471  1
  C  C381  1  0.60533907  0.39120879  0.33639369  1
  C  C382  1  0.66211233  0.35667193  0.45912107  1
  O  O383  1  0.54728925  0.42364133  0.22073055  1
  H  H384  1  0.59863756  0.45692947  0.35235487  1
  C  C385  1  0.66417108  0.28715113  0.10363340  1
  H  H386  1  0.54936634  0.30434661  0.11127782  1
  N  N387  1  0.53675741  0.27402885  0.12603464  1
  C  C388  1  0.67948773  0.32675242  0.09033656  1
  O  O389  1  0.63970646  0.49271046  0.08193190  1
  C  C390  1  0.61762381  0.43052679  0.38844949  1
  O  O391  1  0.55816900  0.35543463  0.16915978  1
  H  H392  1  0.61511809  0.32356758  0.32616480  1
  Cu  Cu393  1  0.72647337  0.46166890  0.11759108  1
  C  C394  1  0.56907496  0.38654725  0.23197128  1
  H  H395  1  0.68455978  0.26442268  0.16652534  1
  C  C396  1  0.62563281  0.35369678  0.37333161  1
  C  C397  1  0.62342330  0.27834164  0.04379634  1
  H  H398  1  0.71146080  0.33387879  0.14201807  1
  O  O399  1  0.70846340  0.40916382  0.03863225  1
  Cu  Cu400  1  0.54196224  0.46915291  0.09117711  1
  H  H401  1  0.74963930  0.35580900  0.41303883  1
  H  H402  1  0.50591516  0.27360276  0.13729270  1
  C  C403  1  0.74087303  0.25231560  0.46042650  1
  C  C404  1  0.71484900  0.48437223  0.49421791  1
  C  C405  1  0.66914729  0.47847956  0.48252199  1
  C  C406  1  0.65541545  0.43463311  0.47099451  1
  C  C407  1  0.69088463  0.32087319  0.47206767  1
  C  C408  1  0.54886825  0.18427950  0.62319411  1
  C  C409  1  0.55175787  0.22707770  0.63944749  1
  C  C410  1  0.51033794  0.16400522  0.62279491  1
  O  O411  1  0.51418046  0.06665080  0.66899946  1
  H  H412  1  0.51229475  0.13123417  0.58061124  1
  O  O413  1  0.57424480  0.04495889  0.58390545  1
  C  C414  1  0.58905410  0.16356027  0.58596613  1
  O  O415  1  0.62061663  0.18215829  0.58540068  1
  C  C416  1  0.53638044  0.05532588  0.56298640  1
  H  H417  1  0.68303309  0.21710096  0.52116764  1
  O  O418  1  0.58732993  0.12328942  0.56355082  1
  C  C419  1  0.69840444  0.24784427  0.50661652  1
  C  C420  1  0.71689346  0.00260353  0.51047924  1
  H  H421  1  0.50640962  0.06795456  0.86655355  1
  H  H422  1  0.58222074  0.24146369  0.63746280  1
  C  C423  1  0.51579192  0.24917038  0.67485865  1
  C  C424  1  0.67467036  0.39847897  0.97922536  1
  O  O425  1  0.52320957  0.43783586  0.90954386  1
  Cu  Cu426  1  0.61041071  0.46206780  0.93314398  1
  C  C427  1  0.67394460  0.39618710  0.52745617  1
  C  C428  1  0.60374482  0.30858223  0.94515648  1
  C  C429  1  0.67270663  0.28114178  0.50211332  1
  C  C430  1  0.50449328  0.35864696  0.84268826  1
  O  O431  1  0.58137786  0.43762383  0.77324135  1
  N  N432  1  0.70457903  0.40011780  0.64087304  1
  C  C433  1  0.55006462  0.31781198  0.59945507  1
  C  C434  1  0.51895467  0.29457143  0.69015477  1
  H  H435  1  0.73502693  0.45890389  0.51078067  1
  H  H436  1  0.56639749  0.30289028  0.50035361  1
  H  H437  1  0.58499363  0.37458117  0.56025846  1
  H  H438  1  0.70438877  0.42276913  0.72994494  1
  C  C439  1  0.56158082  0.35803278  0.63287506  1
  H  H440  1  0.57382186  0.30231170  0.88289324  1
  C  C441  1  0.54929399  0.41850534  0.81381212  1
  H  H442  1  0.71151862  0.37240763  0.68477553  1
  O  O443  1  0.65246619  0.42323756  0.89997424  1
  C  C444  1  0.53880876  0.37798067  0.75997061  1
  H  H445  1  0.60819193  0.36868148  0.83179893  1
  H  H446  1  0.63855668  0.27816771  0.51314730  1
  C  C447  1  0.62073034  0.34754522  0.91819675  1
  C  C448  1  0.65761856  0.35715211  0.99735766  1
  Cu  Cu449  1  0.68887680  0.65236400  0.21842568  1
  O  O450  1  0.63562141  0.67231394  0.25997107  1
  C  C451  1  0.62106332  0.70724158  0.31994450  1
  O  O452  1  0.73517741  0.67471828  0.09804942  1
  O  O453  1  0.61621127  0.73792432  0.23577591  1
  C  C454  1  0.66547979  0.51959064  0.03641242  1
  O  O455  1  0.70226601  0.51090245  0.02908100  1
  O  O456  1  0.69870484  0.62850433  0.41783758  1
  C  C457  1  0.72068204  0.59717897  0.44234444  1
  C  C458  1  0.60788811  0.70773951  0.49550510  1
  C  C459  1  0.70235084  0.55712866  0.47106716  1
  H  H460  1  0.58571575  0.69672988  0.05910628  1
  C  C461  1  0.73119176  0.52344896  0.48735285  1
  O  O462  1  0.51204111  0.56674985  0.13484200  1
  C  C463  1  0.64227993  0.51243364  0.46148396  1
  H  H464  1  0.60879621  0.50593879  0.46901006  1
  C  C465  1  0.60824094  0.57256072  0.00335321  1
  H  H466  1  0.58786013  0.55155222  0.07606938  1
  H  H467  1  0.63916586  0.57858421  0.47220358  1
  C  C468  1  0.65991465  0.55173992  0.46352714  1
  O  O469  1  0.61484489  0.84691783  0.08313406  1
  H  H470  1  0.66629291  0.79303777  0.16297879  1
  C  C471  1  0.52858957  0.92600594  0.43020665  1
  C  C472  1  0.69088140  0.88617340  0.35948516  1
  C  C473  1  0.68442700  0.81460383  0.23997730  1
  H  H474  1  0.73328188  0.77217865  0.29530055  1
  C  C475  1  0.74492556  0.83419180  0.38859644  1
  C  C476  1  0.72907411  0.87540410  0.41869420  1
  O  O477  1  0.54461116  0.89044885  0.46585858  1
  O  O478  1  0.60739584  0.90009814  0.25621673  1
  H  H479  1  0.57773625  0.76654408  0.46517264  1
  Cu  Cu480  1  0.60263707  0.89310234  0.47073104  1
  C  C481  1  0.72253753  0.80385598  0.30045321  1
  Cu  Cu482  1  0.55786162  0.91305645  0.13746683  1
  C  C483  1  0.66971079  0.85504591  0.26825797  1
  O  O484  1  0.53808498  0.94373705  0.30412260  1
  C  C485  1  0.63002823  0.86634855  0.19073204  1
  H  H486  1  0.67751760  0.91487730  0.40415953  1
  O  O487  1  0.51010080  0.91055846  0.03304671  1
  C  C488  1  0.60684640  0.67409392  0.75483247  1
  C  C489  1  0.62124365  0.63592187  0.84763689  1
  C  C490  1  0.66205080  0.62064167  0.81909118  1
  C  C491  1  0.58258486  0.70839274  0.81261999  1
  H  H492  1  0.68311109  0.63795647  0.73858497  1
  C  C493  1  0.56950251  0.74330921  0.71274049  1
  C  C494  1  0.61993864  0.67484389  0.59557127  1
  C  C495  1  0.67572221  0.58295522  0.87716884  1
  C  C496  1  0.59622600  0.61235683  0.95649175  1
  H  H497  1  0.56677188  0.62335993  0.99784488  1
  H  H498  1  0.70790343  0.57039446  0.85476040  1
  H  H499  1  0.72547133  0.73775303  0.94416570  1
  N  N500  1  0.56791984  0.70891355  0.96814718  1
  C  C501  1  0.64885405  0.55898996  0.97126173  1
  C  C502  1  0.58343446  0.74112184  0.54968938  1
  O  O503  1  0.52630998  0.51517402  0.98160732  1
  H  H504  1  0.63738493  0.64923256  0.54421694  1
  H  H505  1  0.55356540  0.73527150  0.99977622  1
  O  O506  1  0.66250919  0.91413492  0.80570719  1
  C  C507  1  0.60405902  0.95166867  0.85884120  1
  H  H508  1  0.54948911  0.93521282  0.72293823  1
  H  H509  1  0.74571543  0.80455164  0.83676513  1
  H  H510  1  0.67186424  0.99312808  0.70033350  1
  C  C511  1  0.62742635  0.91747052  0.76971610  1
  C  C512  1  0.72998744  0.96584577  0.75407010  1
  H  H513  1  0.72440915  0.76383188  0.53948511  1
  H  H514  1  0.55829950  0.87953114  0.88008742  1
  O  O515  1  0.60485494  0.89127319  0.69523795  1
  N  N516  1  0.73499118  0.87514381  0.86572584  1
  H  H517  1  0.59490098  0.81703371  0.73386484  1
  C  C518  1  0.53753896  0.98771262  0.88361923  1
  C  C519  1  0.56273615  0.95728152  0.81442125  1
  C  C520  1  0.50220304  0.84331313  0.91651459  1
  C  C521  1  0.54289072  0.84918243  0.85173554  1
  C  C522  1  0.56346033  0.81580979  0.78706361  1
  C  C523  1  0.62290004  0.97712554  0.97173294  1
  H  H524  1  0.71081642  0.89362055  0.82050608  1
  C  C525  1  0.54265885  0.77701048  0.79017811  1
  H  H526  1  0.50606327  0.99378468  0.84082855  1
  H  H527  1  0.72315288  0.85293849  0.94223085  1
  H  H528  1  0.72031489  0.95746127  0.87355192  1
  C  C529  1  0.70372825  0.98833551  0.65925091  1
  H  H530  1  0.65625245  0.97519985  0.99889054  1
  O  O531  1  0.80379446  0.21554071  0.40270293  1
  H  H532  1  0.76644678  0.00379063  0.34313271  1
  C  C533  1  0.76500921  0.21348402  0.44190469  1
  H  H534  1  0.93801526  0.26145226  0.36588636  1
  O  O535  1  0.86428233  0.27095133  0.38091398  1
  H  H536  1  0.86708696  0.48136322  0.46231787  1
  C  C537  1  0.75813259  0.29035534  0.44167270  1
  C  C538  1  0.80512508  0.47570734  0.25123870  1
  C  C539  1  0.91491147  0.30055044  0.04307655  1
  C  C540  1  0.84762056  0.49409954  0.22177487  1
  O  O541  1  0.84244772  0.33422400  0.42211807  1
  H  H542  1  0.79016513  0.29261522  0.40758090  1
  C  C543  1  0.87045032  0.30985410  0.41033715  1
  O  O544  1  0.78130405  0.47361959  0.12690649  1
  C  C545  1  0.91430818  0.32372749  0.43372197  1
  C  C546  1  0.94614409  0.29271717  0.41666976  1
  H  H547  1  0.94745763  0.33804399  0.22067037  1
  H  H548  1  0.98535949  0.40262624  0.13130856  1
  H  H549  1  0.88822307  0.29827358  0.12269969  1
  C  C550  1  0.98561665  0.30310142  0.46010270  1
  C  C551  1  0.92520697  0.36402350  0.44809428  1
  C  C552  1  0.94965087  0.32240530  0.09473398  1
  O  O553  1  0.79312843  0.46615222  0.38098836  1
  C  C554  1  0.87525133  0.49571710  0.34916930  1
  H  H555  1  0.97505844  0.40961080  0.48037851  1
  H  H556  1  0.90134028  0.38794859  0.45720428  1
  C  C557  1  0.96688069  0.37648756  0.46989134  1
  O  O558  1  0.88923122  0.24390158  0.68049645  1
  Cu  Cu559  1  0.84631200  0.23501465  0.53588840  1
  O  O560  1  0.85077066  0.25655376  0.90070415  1
  C  C561  1  0.88254828  0.25893340  0.82894011  1
  C  C562  1  0.95491425  0.28728403  0.79161144  1
  H  H563  1  0.95237666  0.27478387  0.67353283  1
  C  C564  1  0.98817329  0.31025140  0.83691937  1
  C  C565  1  0.91813119  0.28459743  0.88776559  1
  C  C566  1  0.98533985  0.32772116  0.99844591  1
  C  C567  1  0.99572438  0.34494688  0.50012039  1
  Cu  Cu568  1  0.86798310  0.58926619  0.25065655  1
  O  O569  1  0.78284386  0.67335854  0.28145219  1
  C  C570  1  0.92071472  0.53756091  0.18911509  1
  Cu  Cu571  1  0.79174195  0.61499477  0.27677728  1
  O  O572  1  0.83142848  0.62198226  0.13022753  1
  C  C573  1  0.96330682  0.70711146  0.13793974  1
  C  C574  1  0.95710144  0.56711272  0.16746406  1
  C  C575  1  0.95101727  0.60791584  0.10192751  1
  H  H576  1  0.96440935  0.69450356  0.26923186  1
  O  O577  1  0.89556586  0.61726298  0.42123047  1
  N  N578  1  0.90903735  0.62054448  0.10152349  1
  H  H579  1  0.90328091  0.65214059  0.08900474  1
  H  H580  1  0.96074445  0.64912271  0.38983753  1
  C  C581  1  0.91019721  0.51937526  0.33791980  1
  H  H582  1  0.85495907  0.69496490  0.09801987  1
  C  C583  1  0.85609620  0.51304047  0.07489615  1
  C  C584  1  0.98342738  0.63614564  0.06777481  1
  C  C585  1  0.77520100  0.73264838  0.11218541  1
  C  C586  1  0.76564194  0.69055296  0.16625662  1
  H  H587  1  0.92907393  0.52554113  0.44150106  1
  O  O588  1  0.76006783  0.59958511  0.44197600  1
  C  C589  1  0.97414084  0.68010171  0.01161371  1
  C  C590  1  0.89375822  0.53371286  0.05877717  1
  C  C591  1  0.99839576  0.55955897  0.21228613  1
  H  H592  1  0.81679248  0.74536904  0.31012187  1
  C  C593  1  0.95331619  0.74743695  0.10365567  1
  C  C594  1  0.97745695  0.63579973  0.49398234  1
  H  H595  1  0.75105862  0.89383850  0.48984846  1
  C  C596  1  0.75662933  0.99137569  0.45854027  1
  H  H597  1  0.81251414  0.87924319  0.41573332  1
  Cu  Cu598  1  0.97007373  0.87260643  0.11302526  1
  O  O599  1  0.91649001  0.89830175  0.10318184  1
  O  O600  1  0.94413812  0.82573736  0.02600275  1
  H  H601  1  0.94380343  0.76965802  0.19993203  1
  C  C602  1  0.81227442  0.79826640  0.16998649  1
  C  C603  1  0.79400628  0.81390652  0.02654936  1
  H  H604  1  0.82913181  0.81629366  0.25450240  1
  C  C605  1  0.78129087  0.82298336  0.48679857  1
  C  C606  1  0.81597493  0.84978568  0.48585491  1
  O  O607  1  0.88696693  0.90304723  0.47206827  1
  C  C608  1  0.80300105  0.75786000  0.20276299  1
  O  O609  1  0.99472150  0.79800469  0.36603395  1
  H  H610  1  0.86527281  0.84879700  0.07695168  1
  H  H611  1  0.80862765  0.95115151  0.49322960  1
  C  C612  1  0.84374705  0.86775133  0.00162507  1
  H  H613  1  0.95706195  0.56786647  0.80365922  1
  C  C614  1  0.81895010  0.66137396  0.72766606  1
  C  C615  1  0.81962475  0.69859147  0.64075057  1
  C  C616  1  0.82881973  0.66250343  0.89184373  1
  H  H617  1  0.80504991  0.63276461  0.66791071  1
  C  C618  1  0.97477217  0.58853105  0.72444918  1
  O  O619  1  0.89298097  0.57712777  0.63192318  1
  C  C620  1  0.97603384  0.69058489  0.84172804  1
  O  O621  1  0.81207102  0.59163706  0.90374332  1
  C  C622  1  0.84621747  0.69626189  0.97030650  1
  C  C623  1  0.95629412  0.60613632  0.58884025  1
  H  H624  1  0.90275773  0.54954840  0.94587735  1
  H  H625  1  0.98658498  0.66906637  0.75348575  1
  C  C626  1  0.96724218  0.73222344  0.81007397  1
  C  C627  1  0.84610546  0.73254019  0.88388385  1
  C  C628  1  0.82432191  0.62116604  0.97292178  1
  H  H629  1  0.75009489  0.73398361  0.65938649  1
  H  H630  1  0.83409127  0.50934989  0.97532581  1
  C  C631  1  0.83238043  0.73616571  0.71718131  1
  C  C632  1  0.91253427  0.59786731  0.54133860  1
  H  H633  1  0.96741602  0.74185875  0.68544608  1
  H  H634  1  0.89898249  0.61007091  0.98366449  1
  H  H635  1  0.80728372  0.69943784  0.52152686  1
  H  H636  1  0.76529648  0.52571663  0.50112038  1
  C  C637  1  0.75172918  0.75282055  0.99418757  1
  O  O638  1  0.99792296  0.89491583  0.84204159  1
  C  C639  1  0.85419471  0.83910374  0.55256177  1
  C  C640  1  0.78453315  0.78395518  0.57116532  1
  C  C641  1  0.78000495  0.96370133  0.54087712  1
  O  O642  1  0.99529533  0.95626111  0.73264199  1
  C  C643  1  0.83184499  0.93160086  0.83241170  1
  C  C644  1  0.80420701  0.85537997  0.95996282  1
  C  C645  1  0.89008134  0.86812387  0.51414598  1
  O  O646  1  0.92639077  0.85300952  0.54451333  1
  C  C647  1  0.95783296  0.75850935  0.93845159  1
  H  H648  1  0.89283931  0.79532106  0.68064487  1
  C  C649  1  0.76353249  0.79107498  0.93964487  1
  C  C650  1  0.76862158  0.95034284  0.69999470  1
  O  O651  1  0.96713444  0.81925392  0.77938418  1
  C  C652  1  0.95726221  0.80342447  0.91487568  1
  C  C653  1  0.77695985  0.88031602  0.86149771  1
  C  C654  1  0.82494315  0.77791359  0.64435370  1
  C  C655  1  0.85459431  0.90547659  0.93553383  1
  O  O656  1  0.90456049  0.95438689  0.96970995  1
  C  C657  1  0.79243257  0.91827220  0.79323904  1
  C  C658  1  0.85982650  0.80446832  0.64911300  1
  H  H659  1  0.84346877  0.96198471  0.78966779  1
  H  H660  1  0.85464631  0.76153552  0.94175587  1
  Cu  Cu661  1  0.96159259  0.87404045  0.69726680  1
  C  C662  1  0.89582847  0.91888958  0.99883118  1
  N  N663  1  0.75232278  0.75850595  0.58592679  1
