# generated using pymatgen
data_ZnHC5O4
_symmetry_space_group_name_H-M   'P 1'
_cell_length_a   19.23885450
_cell_length_b   18.03615953
_cell_length_c   18.40363502
_cell_angle_alpha   90.00000000
_cell_angle_beta   90.00000000
_cell_angle_gamma   90.00000000
_symmetry_Int_Tables_number   1
_chemical_formula_structural   ZnHC5O4
_chemical_formula_sum   'Zn32 H32 C160 O128'
_cell_volume   6385.97023642
_cell_formula_units_Z   32
loop_
 _symmetry_equiv_pos_site_id
 _symmetry_equiv_pos_as_xyz
  1  'x, y, z'
loop_
 _atom_site_type_symbol
 _atom_site_label
 _atom_site_symmetry_multiplicity
 _atom_site_fract_x
 _atom_site_fract_y
 _atom_site_fract_z
 _atom_site_occupancy
  C  C0  1  0.00104771  0.10090116  0.24436449  1
  O  O1  1  0.10869990  0.44674323  0.25409450  1
  O  O2  1  0.12669518  0.41668415  0.36815307  1
  C  C3  1  0.10835703  0.26756328  0.12250615  1
  H  H4  1  0.10055241  0.19025668  0.25489872  1
  O  O5  1  0.03150353  0.19796671  0.35052821  1
  C  C6  1  0.15018781  0.20306872  0.14252465  1
  O  O7  1  0.11257602  0.31233811  0.17432180  1
  C  C8  1  0.14707720  0.17408302  0.22106174  1
  Zn  Zn9  1  0.01953123  0.37969036  0.21558094  1
  O  O10  1  0.06125087  0.27674420  0.07562599  1
  Zn  Zn11  1  0.00607692  0.19731823  0.46814964  1
  C  C12  1  0.20039680  0.12277316  0.33652010  1
  H  H13  1  0.03255768  0.08431795  0.29293104  1
  O  O14  1  0.18573011  0.05809379  0.35862108  1
  C  C15  1  0.19559192  0.16734805  0.09380567  1
  Zn  Zn16  1  0.06664870  0.42255058  0.45787912  1
  C  C17  1  0.12201249  0.46393499  0.31899930  1
  C  C18  1  0.20663653  0.13636268  0.25477582  1
  C  C19  1  0.00379981  0.22709922  0.29602111  1
  O  O20  1  0.10592415  0.13597338  0.00430041  1
  C  C21  1  0.16575253  0.12885870  0.02275987  1
  O  O22  1  0.21649854  0.17378850  0.37793031  1
  O  O23  1  0.16248672  0.48525774  0.49120203  1
  C  C24  1  0.18158739  0.08516943  0.76648167  1
  O  O25  1  0.16235756  0.28641420  0.92871709  1
  C  C26  1  0.21650092  0.20297254  0.68181561  1
  O  O27  1  0.18552142  0.39936580  0.88613602  1
  C  C28  1  0.19167709  0.16538000  0.74611234  1
  O  O29  1  0.18802751  0.03306437  0.72368863  1
  C  C30  1  0.22652653  0.28120691  0.68459946  1
  O  O31  1  0.03929041  0.07281025  0.62780186  1
  H  H32  1  0.00920477  0.11066553  0.72525787  1
  C  C33  1  0.19201652  0.29102800  0.80837008  1
  O  O34  1  0.05909824  0.39380653  0.57444423  1
  H  H35  1  0.03653043  0.38452971  0.69691183  1
  C  C36  1  0.01220757  0.29403780  0.77216888  1
  C  C37  1  0.01435035  0.17243024  0.72276063  1
  H  H38  1  0.16413799  0.18976265  0.85901013  1
  C  C39  1  0.05384410  0.32323081  0.57518549  1
  C  C40  1  0.03901581  0.28046960  0.64267581  1
  C  C41  1  0.04826465  0.13564468  0.60461267  1
  C  C42  1  0.17998680  0.33068896  0.87767731  1
  C  C43  1  0.18082574  0.21386631  0.80490896  1
  O  O44  1  0.22832099  0.10635560  0.58964454  1
  C  C45  1  0.03045387  0.32306773  0.70458558  1
  O  O46  1  0.06946726  0.14489076  0.54104773  1
  Zn  Zn47  1  0.06347375  0.24913004  0.96057726  1
  C  C48  1  0.21872353  0.32509951  0.74636371  1
  O  O49  1  0.16245318  0.07254792  0.82907998  1
  O  O50  1  0.20328548  0.08533023  0.98614407  1
  C  C51  1  0.23590364  0.17354001  0.60860054  1
  C  C52  1  0.03365730  0.19946875  0.65423356  1
  O  O53  1  0.05972242  0.29650819  0.51120673  1
  Zn  Zn54  1  0.14221389  0.02654837  0.61431690  1
  C  C55  1  0.00318375  0.21652554  0.78370914  1
  O  O56  1  0.00811565  0.41749862  0.81627208  1
  C  C57  1  0.00416561  0.35005206  0.83163555  1
  C  C58  1  0.18173966  0.78628042  0.32675739  1
  O  O59  1  0.14693862  0.83814677  0.30236906  1
  C  C60  1  0.02176329  0.97839355  0.21196512  1
  C  C61  1  0.12814625  0.69856404  0.18696021  1
  C  C62  1  0.12709754  0.58592083  0.26708502  1
  H  H63  1  0.18916433  0.69570405  0.43236208  1
  O  O64  1  0.11094105  0.76379652  0.17954420  1
  C  C65  1  0.13903465  0.66352405  0.26276322  1
  C  C66  1  0.13352741  0.54737863  0.33173494  1
  C  C67  1  0.16975530  0.55325821  0.47134843  1
  O  O68  1  0.03055459  0.92749788  0.16679816  1
  O  O69  1  0.14913344  0.66059622  0.13237212  1
  Zn  Zn70  1  0.15643030  0.95021187  0.30498195  1
  C  C71  1  0.17009700  0.66067388  0.38690585  1
  C  C72  1  0.16224793  0.70278586  0.32374510  1
  C  C73  1  0.15753262  0.58471599  0.39754635  1
  H  H74  1  0.10646455  0.55431978  0.21988581  1
  Zn  Zn75  1  0.23831420  0.71577690  0.08062834  1
  O  O76  1  0.05393665  0.97772990  0.27436348  1
  O  O77  1  0.22960555  0.80210546  0.36929986  1
  Zn  Zn78  1  0.00501603  0.80657312  0.16981576  1
  O  O79  1  0.24814010  0.95614280  0.23845350  1
  C  C80  1  0.06265897  0.58843662  0.91045730  1
  C  C81  1  0.08868523  0.85649195  0.66255698  1
  C  C82  1  0.15348275  0.81033775  0.64446499  1
  C  C83  1  0.11051621  0.71437829  0.91997849  1
  O  O84  1  0.17293572  0.94692002  0.53543376  1
  C  C85  1  0.20940719  0.69758258  0.68069656  1
  C  C86  1  0.15110126  0.74311656  0.68396252  1
  O  O87  1  0.19464837  0.89120270  0.95633211  1
  C  C88  1  0.10907792  0.79385518  0.92179188  1
  O  O89  1  0.05778656  0.95076805  0.94547802  1
  C  C90  1  0.22063237  0.90281357  0.55163297  1
  O  O91  1  0.04928783  0.82862773  0.71018233  1
  H  H92  1  0.10586895  0.72448185  0.71814666  1
  C  C93  1  0.05888548  0.67162320  0.89122215  1
  O  O94  1  0.17240359  0.56819628  0.70603781  1
  C  C95  1  0.04780828  0.82838507  0.89546663  1
  O  O96  1  0.07565430  0.91970818  0.63947026  1
  C  C97  1  0.20228518  0.62682387  0.72931022  1
  O  O98  1  0.11994227  0.55967081  0.91890303  1
  C  C99  1  0.00080580  0.78258376  0.85571430  1
  Zn  Zn100  1  0.22723115  0.52251846  0.61247073  1
  C  C101  1  0.20817569  0.83148074  0.60045900  1
  C  C102  1  0.02655878  0.90694745  0.90356474  1
  C  C103  1  0.17192151  0.82735044  0.95455653  1
  H  H104  1  0.15347039  0.68679237  0.94838636  1
  O  O105  1  0.22293945  0.62677559  0.79254909  1
  O  O106  1  0.00857110  0.55365734  0.91969479  1
  Zn  Zn107  1  0.18821058  0.50914593  0.84155637  1
  O  O108  1  0.19803293  0.59456902  0.51688717  1
  C  C109  1  0.00656644  0.70398106  0.84657582  1
  O  O110  1  0.20932862  0.77648381  0.98426970  1
  Zn  Zn111  1  0.14992521  0.99985593  0.92542198  1
  C  C112  1  0.44655216  0.33110062  0.27612888  1
  O  O113  1  0.40693205  0.28523346  0.24726915  1
  O  O114  1  0.41662032  0.38032358  0.31705620  1
  Zn  Zn115  1  0.27136705  0.15523035  0.46642519  1
  Zn  Zn116  1  0.25265468  0.20974704  0.18842093  1
  O  O117  1  0.35934781  0.09457361  0.44126095  1
  O  O118  1  0.34433107  0.00435022  0.21083617  1
  O  O119  1  0.44785893  0.16519847  0.46631584  1
  C  C120  1  0.42143583  0.10425705  0.46077937  1
  C  C121  1  0.28465098  0.01204491  0.22342725  1
  C  C122  1  0.46943733  0.03752560  0.47721194  1
  H  H123  1  0.49032080  0.20673761  0.28518566  1
  C  C124  1  0.25163039  0.09492590  0.20703964  1
  H  H125  1  0.28004740  0.07604558  0.08926138  1
  C  C126  1  0.25301677  0.11621713  0.12451474  1
  Zn  Zn127  1  0.42930989  0.48973971  0.27438214  1
  C  C128  1  0.27025406  0.41296112  0.04908891  1
  O  O129  1  0.30602263  0.41449160  0.09266400  1
  O  O130  1  0.25828923  0.42422870  0.67099442  1
  H  H131  1  0.25396456  0.30200213  0.63394323  1
  O  O132  1  0.26653398  0.44606932  0.78746935  1
  C  C133  1  0.25031435  0.40397758  0.73680447  1
  O  O134  1  0.25962210  0.21394113  0.56091053  1
  C  C135  1  0.38672379  0.74785577  0.04947168  1
  O  O136  1  0.34283854  0.69677855  0.04390865  1
  Zn  Zn137  1  0.33420566  0.80139316  0.34211970  1
  C  C138  1  0.48102882  0.67554282  0.30952733  1
  O  O139  1  0.39438176  0.59954359  0.24570161  1
  C  C140  1  0.40334368  0.65294685  0.29019740  1
  H  H141  1  0.42400784  0.89766386  0.15731273  1
  H  H142  1  0.47990341  0.77922377  0.24663427  1
  O  O143  1  0.35163351  0.68148972  0.32298078  1
  C  C144  1  0.38981858  0.79971399  0.11094399  1
  O  O145  1  0.37608366  0.84450460  0.43503755  1
  C  C146  1  0.34343602  0.79473721  0.17454659  1
  C  C147  1  0.48726217  0.86562535  0.06108696  1
  O  O148  1  0.44367869  0.53298222  0.38162870  1
  O  O149  1  0.29331843  0.74987958  0.17416017  1
  C  C150  1  0.43695219  0.85837710  0.11519178  1
  O  O151  1  0.35345081  0.83520265  0.22972228  1
  C  C152  1  0.43623712  0.83374760  0.46380359  1
  H  H153  1  0.38381513  0.96292473  0.44043373  1
  C  C154  1  0.43705012  0.96719297  0.46334234  1
  O  O155  1  0.46299397  0.77239850  0.47262816  1
  C  C156  1  0.47414605  0.90438636  0.47806882  1
  C  C157  1  0.49235711  0.81262389  0.00542044  1
  C  C158  1  0.32382213  0.66522374  0.61733556  1
  O  O159  1  0.32354212  0.59699290  0.63078138  1
  O  O160  1  0.37243607  0.69048738  0.58006685  1
  H  H161  1  0.30893327  0.79591223  0.55624910  1
  Zn  Zn162  1  0.47980336  0.72385672  0.58161668  1
  H  H163  1  0.45146863  0.71393130  0.95655630  1
  C  C164  1  0.26374885  0.78249557  0.59375139  1
  O  O165  1  0.27855182  0.91536199  0.53293575  1
  C  C166  1  0.26319346  0.71469092  0.63021726  1
  C  C167  1  0.44438015  0.75495090  0.99958562  1
  O  O168  1  0.74643646  0.40157558  0.15568037  1
  C  C169  1  0.70265475  0.06563994  0.03974200  1
  H  H170  1  0.65577599  0.14935405  0.11303793  1
  H  H171  1  0.69552076  0.37734571  0.30849198  1
  C  C172  1  0.73389323  0.24205856  0.31176975  1
  C  C173  1  0.66131726  0.25833841  0.30284153  1
  C  C174  1  0.65202097  0.33664735  0.29607013  1
  C  C175  1  0.60741733  0.12470984  0.29306711  1
  C  C176  1  0.67341460  0.13573526  0.05494789  1
  C  C177  1  0.58078153  0.44748821  0.26199467  1
  C  C178  1  0.58643440  0.36343760  0.28244147  1
  C  C179  1  0.60549794  0.20674492  0.29091628  1
  O  O180  1  0.66026441  0.08585468  0.30532954  1
  O  O181  1  0.55230491  0.09026552  0.27986345  1
  Zn  Zn182  1  0.73754107  0.09431324  0.39347768  1
  O  O183  1  0.62271593  0.26343123  0.10597757  1
  O  O184  1  0.67487256  0.03272544  0.15536558  1
  C  C185  1  0.52951788  0.31622880  0.27958411  1
  C  C186  1  0.53790943  0.24187267  0.28649319  1
  O  O187  1  0.52725438  0.47061036  0.22952115  1
  C  C188  1  0.70602848  0.01125097  0.10072312  1
  C  C189  1  0.63542233  0.26424082  0.04229435  1
  O  O190  1  0.62720286  0.48951938  0.27567004  1
  C  C191  1  0.72823138  0.46083018  0.46994723  1
  C  C192  1  0.74756909  0.25636741  0.48787395  1
  C  C193  1  0.68425954  0.21003167  0.49836218  1
  O  O194  1  0.68330963  0.13939115  0.48930799  1
  C  C195  1  0.72964084  0.33173868  0.49161265  1
  O  O196  1  0.66505317  0.45981352  0.49450189  1
  O  O197  1  0.62205323  0.32202345  0.00478053  1
  C  C198  1  0.66677597  0.19277180  0.00564364  1
  O  O199  1  0.72719371  0.21490667  0.81743515  1
  O  O200  1  0.67770292  0.30295018  0.87877263  1
  C  C201  1  0.69340977  0.18224090  0.93645915  1
  Zn  Zn202  1  0.70303378  0.39201787  0.95248855  1
  C  C203  1  0.73129422  0.05278869  0.96967128  1
  C  C204  1  0.70115786  0.23682068  0.87165029  1
  O  O205  1  0.65925694  0.02463310  0.66026085  1
  C  C206  1  0.60479752  0.05404616  0.66907587  1
  C  C207  1  0.72414525  0.11229385  0.92310330  1
  O  O208  1  0.54981570  0.08042483  0.67815028  1
  O  O209  1  0.64620023  0.49619071  0.95063182  1
  C  C210  1  0.53737107  0.04158659  0.50479349  1
  Zn  Zn211  1  0.55573314  0.14847957  0.51393025  1
  O  O212  1  0.62838992  0.23990509  0.51523749  1
  H  H213  1  0.67332783  0.34572082  0.50382489  1
  H  H214  1  0.62401314  0.61451515  0.40566624  1
  C  C215  1  0.71010029  0.71263877  0.37362410  1
  Zn  Zn216  1  0.67880215  0.81522266  0.32037092  1
  O  O217  1  0.73581738  0.73336280  0.43123245  1
  C  C218  1  0.57870328  0.76661904  0.30299721  1
  O  O219  1  0.56332274  0.91133108  0.30715161  1
  C  C220  1  0.73419836  0.57632461  0.08793742  1
  C  C221  1  0.69671524  0.71696344  0.07822099  1
  C  C222  1  0.58801046  0.64936771  0.37163821  1
  O  O223  1  0.54911737  0.52323203  0.42529540  1
  C  C224  1  0.51913231  0.62989389  0.35608132  1
  C  C225  1  0.62136420  0.71441852  0.34695987  1
  C  C226  1  0.53347626  0.93186019  0.06878212  1
  Zn  Zn227  1  0.58070106  0.99375059  0.21612251  1
  H  H228  1  0.67964776  0.55978334  0.09588282  1
  O  O229  1  0.74625220  0.67018476  0.32837294  1
  C  C230  1  0.58070029  0.85317152  0.27149394  1
  O  O231  1  0.52103677  0.97606671  0.11933974  1
  O  O232  1  0.59442956  0.86998551  0.20676780  1
  O  O233  1  0.65559045  0.73221399  0.12515321  1
  C  C234  1  0.50366586  0.55677940  0.39149429  1
  O  O235  1  0.69793073  0.74924134  0.01719536  1
  O  O236  1  0.73687139  0.94844737  0.10014260  1
  C  C237  1  0.50903541  0.74208040  0.28411336  1
  O  O238  1  0.74760638  0.51726874  0.43432508  1
  O  O239  1  0.58641290  0.93861810  0.02866199  1
  Zn  Zn240  1  0.66848876  0.86297462  0.00863049  1
  O  O241  1  0.54843577  0.60072399  0.59997328  1
  Zn  Zn242  1  0.70267090  0.74916648  0.54602141  1
  O  O243  1  0.68845127  0.63237139  0.56621546  1
  H  H244  1  0.55283940  0.59628051  0.79800423  1
  C  C245  1  0.74455507  0.55320772  0.73697832  1
  O  O246  1  0.55152419  0.54392667  0.90311299  1
  C  C247  1  0.54477889  0.80355420  0.94004147  1
  O  O248  1  0.53165664  0.75328199  0.89883470  1
  C  C249  1  0.60789324  0.58553081  0.78144082  1
  C  C250  1  0.59127309  0.84555871  0.53456646  1
  C  C251  1  0.62922585  0.59746923  0.70885568  1
  C  C252  1  0.56872184  0.62584605  0.66142830  1
  C  C253  1  0.69783820  0.58105552  0.68594293  1
  C  C254  1  0.65440682  0.55045726  0.82870219  1
  O  O255  1  0.59657283  0.84502027  0.92764571  1
  H  H256  1  0.62688512  0.98319470  0.54953637  1
  C  C257  1  0.72463226  0.53821880  0.80970060  1
  C  C258  1  0.54061988  0.90717674  0.51368325  1
  Zn  Zn259  1  0.60806656  0.55780812  0.51845817  1
  O  O260  1  0.65449540  0.86014830  0.54054227  1
  C  C261  1  0.72778121  0.59773213  0.61370929  1
  C  C262  1  0.57179535  0.97693333  0.52442621  1
  O  O263  1  0.57612580  0.78062595  0.55180177  1
  C  C264  1  0.61251923  0.52902215  0.89841061  1
  O  O265  1  0.53335799  0.68070373  0.68062470  1
  C  C266  1  0.91120743  0.27040559  0.15061952  1
  O  O267  1  0.95910394  0.47869474  0.17772670  1
  O  O268  1  0.91689575  0.33082615  0.19076257  1
  Zn  Zn269  1  0.82174339  0.36642083  0.24640715  1
  O  O270  1  0.81366104  0.10525513  0.47980292  1
  H  H271  1  0.90182804  0.16123048  0.07206397  1
  O  O272  1  0.87575879  0.27313550  0.09725198  1
  C  C273  1  0.92920378  0.14191006  0.11964042  1
  C  C274  1  0.94945491  0.07011055  0.12651464  1
  C  C275  1  0.94450867  0.19545899  0.17480828  1
  C  C276  1  0.85034984  0.16172850  0.46461346  1
  O  O277  1  0.86271868  0.47962474  0.23775942  1
  C  C278  1  0.82041433  0.23740861  0.47177209  1
  O  O279  1  0.90973450  0.15000206  0.43756330  1
  C  C280  1  0.77204549  0.39028400  0.47139634  1
  O  O281  1  0.95675971  0.39586065  0.41943547  1
  C  C282  1  0.76394832  0.43833798  0.10208603  1
  O  O283  1  0.88736042  0.49090554  0.41943949  1
  C  C284  1  0.89828408  0.49357364  0.18416399  1
  H  H285  1  0.91945034  0.28148895  0.43836172  1
  C  C286  1  0.92136764  0.01892173  0.06603415  1
  O  O287  1  0.90568753  0.05208148  0.00819360  1
  C  C288  1  0.84153962  0.37051915  0.44994296  1
  C  C289  1  0.89761398  0.42174316  0.42893678  1
  C  C290  1  0.86559027  0.29677854  0.45558120  1
  O  O291  1  0.77798838  0.40831516  0.04251217  1
  O  O292  1  0.75757615  0.17513972  0.31174374  1
  C  C293  1  0.98397857  0.04748380  0.19121226  1
  C  C294  1  0.97892481  0.17535643  0.23612527  1
  O  O295  1  0.99260591  0.29465604  0.29820877  1
  O  O296  1  0.77869935  0.29538990  0.31641075  1
  C  C297  1  0.98759485  0.17096843  0.85237211  1
  H  H298  1  0.75111043  0.10482873  0.86931752  1
  O  O299  1  0.77664001  0.47087805  0.90869005  1
  O  O300  1  0.97584801  0.19484840  0.91617093  1
  O  O301  1  0.98320364  0.10334557  0.83899956  1
  Zn  Zn302  1  0.91502751  0.02988639  0.89567319  1
  O  O303  1  0.99604963  0.33002299  0.89631496  1
  O  O304  1  0.83831986  0.49025205  0.81244245  1
  C  C305  1  0.78222728  0.49816524  0.84755481  1
  H  H306  1  0.79709992  0.92187417  0.49184827  1
  C  C307  1  0.85653591  0.76324465  0.12296958  1
  C  C308  1  0.78635805  0.51821003  0.10083943  1
  H  H309  1  0.94025698  0.72263196  0.38589917  1
  C  C310  1  0.85609945  0.53505152  0.12142398  1
  C  C311  1  0.91021568  0.81707865  0.28723277  1
  C  C312  1  0.90429963  0.76409546  0.40941180  1
  O  O313  1  0.90852410  0.87043278  0.24396687  1
  H  H314  1  0.92953757  0.63172552  0.14991874  1
  C  C315  1  0.87952606  0.82091989  0.36265951  1
  C  C316  1  0.83256043  0.87599388  0.38788290  1
  C  C317  1  0.82723898  0.67976440  0.12191341  1
  O  O318  1  0.95091274  0.76392411  0.27000825  1
  O  O319  1  0.81889913  0.81425052  0.13984014  1
  O  O320  1  0.90624538  0.95325727  0.07657016  1
  C  C321  1  0.87989966  0.61807344  0.12300552  1
  O  O322  1  0.91879406  0.76779822  0.10739500  1
  C  C323  1  0.79730804  0.93409413  0.34795220  1
  Zn  Zn324  1  0.83521705  0.92965943  0.16838802  1
  Zn  Zn325  1  0.82589740  0.60014359  0.02868614  1
  C  C326  1  0.82212418  0.87295306  0.46539486  1
  Zn  Zn327  1  0.76501550  0.67623697  0.21833426  1
  O  O328  1  0.79592381  0.94607402  0.28019900  1
  C  C329  1  0.88972234  0.76380747  0.48231730  1
  C  C330  1  0.75540246  0.65978955  0.09850169  1
  O  O331  1  0.75894790  0.97233495  0.38973239  1
  Zn  Zn332  1  0.83574296  0.56041884  0.49496271  1
  O  O333  1  0.92468943  0.63644654  0.48893254  1
  H  H334  1  0.79772173  0.54549552  0.71803767  1
  O  O335  1  0.86986610  0.86018224  0.63777571  1
  O  O336  1  0.91521637  0.71013961  0.75599467  1
  C  C337  1  0.82941724  0.82973637  0.59578459  1
  O  O338  1  0.77599975  0.80057120  0.62010262  1
  H  H339  1  0.95657002  0.81116612  0.83229372  1
  Zn  Zn340  1  0.93699219  0.51461354  0.84036462  1
  Zn  Zn341  1  0.94864478  0.78456285  0.67400908  1
  O  O342  1  0.97183626  0.93404950  0.87337839  1
  O  O343  1  0.76119718  0.92032294  0.96058636  1
  O  O344  1  0.78626224  0.57321979  0.59936692  1
  C  C345  1  0.95653015  0.67141592  0.79319508  1
  O  O346  1  0.93802320  0.69909074  0.58623126  1
  C  C347  1  0.76776323  0.98266115  0.93684297  1
  C  C348  1  0.92102181  0.69414626  0.52230932  1
  O  O349  1  0.96335858  0.60580851  0.77568679  1
  C  C350  1  0.84708057  0.82113241  0.51038743  1
  O  O351  1  0.80743398  0.99627448  0.88702104  1
