# generated using pymatgen
data_Cu3H48C78(NO6)2
_symmetry_space_group_name_H-M   'P 1'
_cell_length_a   8.78714425
_cell_length_b   38.97296420
_cell_length_c   20.04443267
_cell_angle_alpha   90.00000000
_cell_angle_beta   90.00000000
_cell_angle_gamma   90.00000000
_symmetry_Int_Tables_number   1
_chemical_formula_structural   Cu3H48C78(NO6)2
_chemical_formula_sum   'Cu12 H192 C312 N8 O48'
_cell_volume   6864.43762684
_cell_formula_units_Z   4
loop_
 _symmetry_equiv_pos_site_id
 _symmetry_equiv_pos_as_xyz
  1  'x, y, z'
loop_
 _atom_site_type_symbol
 _atom_site_label
 _atom_site_symmetry_multiplicity
 _atom_site_fract_x
 _atom_site_fract_y
 _atom_site_fract_z
 _atom_site_occupancy
  H  H0  1  0.16835057  0.12176410  0.11987306  1
  C  C1  1  0.06520505  0.13067761  0.14544098  1
  O  O2  1  0.03148699  0.06712226  0.08115737  1
  H  H3  1  0.09817153  0.15732627  0.04151355  1
  O  O4  1  0.18685255  0.00661056  0.06759800  1
  C  C5  1  0.06403599  0.16339884  0.16923196  1
  H  H6  1  0.47282868  0.12626111  0.20744436  1
  C  C7  1  0.46196030  0.15448285  0.19240334  1
  H  H8  1  0.49073393  0.14536584  0.08424059  1
  Cu  Cu9  1  0.03824839  0.02953976  0.02114676  1
  H  H10  1  0.15616120  0.18041144  0.16306351  1
  C  C11  1  0.24105689  0.22625240  0.04667198  1
  C  C12  1  0.38968732  0.21009031  0.04610775  1
  C  C13  1  0.44580277  0.20042319  0.11558239  1
  C  C14  1  0.42101273  0.22577041  0.16565464  1
  H  H15  1  0.18605885  0.23549235  0.09324279  1
  C  C16  1  0.42043829  0.21449096  0.23205335  1
  C  C17  1  0.47993028  0.16469890  0.12587884  1
  C  C18  1  0.43070153  0.17915916  0.24303998  1
  H  H19  1  0.03739919  0.26326771  0.06930623  1
  H  H20  1  0.27007166  0.28976561  0.13894151  1
  H  H21  1  0.40666080  0.25262855  0.14912103  1
  H  H22  1  0.41956771  0.29683851  0.21953040  1
  C  C23  1  0.12778861  0.32106219  0.19828069  1
  C  C24  1  0.14798064  0.29625284  0.14764127  1
  C  C25  1  0.36469789  0.31801159  0.03917715  1
  H  H26  1  0.25686167  0.30712286  0.02950926  1
  C  C27  1  0.02259462  0.28309461  0.11070132  1
  H  H28  1  0.38318003  0.39871922  0.16398865  1
  C  C29  1  0.28244820  0.39890374  0.13078187  1
  H  H30  1  0.20779104  0.44250189  0.19047313  1
  C  C31  1  0.25626992  0.33974400  0.23379515  1
  C  C32  1  0.01985722  0.40597652  0.05325520  1
  C  C33  1  0.18112118  0.42533911  0.14738428  1
  C  C34  1  0.39301332  0.35224485  0.06406730  1
  C  C35  1  0.26167277  0.37740535  0.07311470  1
  C  C36  1  0.13218365  0.38282290  0.02992931  1
  C  C37  1  0.04680501  0.42794394  0.10957445  1
  C  C38  1  0.49128223  0.29733513  0.03492485  1
  C  C39  1  0.39692089  0.32255406  0.24016706  1
  H  H40  1  0.48353784  0.26951515  0.01637542  1
  C  C41  1  0.30560259  0.03348201  0.37819923  1
  O  O42  1  0.37795527  0.01655911  0.42616655  1
  C  C43  1  0.23671511  0.06866016  0.39906810  1
  C  C44  1  0.23996783  0.07686802  0.46559440  1
  C  C45  1  0.09234260  0.12206897  0.37746257  1
  C  C46  1  0.16019779  0.09155074  0.35520987  1
  C  C47  1  0.10984073  0.13068225  0.44609435  1
  H  H48  1  0.15063958  0.08275998  0.30345790  1
  O  O49  1  0.29101754  0.02433379  0.32205866  1
  H  H50  1  0.30784971  0.06159281  0.49936700  1
  C  C51  1  0.18001353  0.10683302  0.49071150  1
  C  C52  1  0.04932148  0.16129956  0.48264444  1
  H  H53  1  0.02998039  0.13908820  0.34198446  1
  C  C54  1  0.03867899  0.22135298  0.27979447  1
  H  H55  1  0.15369369  0.20988117  0.27575274  1
  H  H56  1  0.38751922  0.23122491  0.27489065  1
  C  C57  1  0.01726745  0.24791020  0.32673844  1
  C  C58  1  0.02994487  0.19564293  0.45919480  1
  H  H59  1  0.07307132  0.20348722  0.40853512  1
  C  C60  1  0.41600148  0.16720815  0.31308734  1
  O  O61  1  0.43229291  0.13403799  0.32315697  1
  O  O62  1  0.38160659  0.18735377  0.35647674  1
  H  H63  1  0.11126440  0.25679327  0.36179784  1
  H  H64  1  0.09344301  0.30618207  0.32441198  1
  C  C65  1  0.08421286  0.31415239  0.37830720  1
  H  H66  1  0.12296776  0.38622149  0.25467416  1
  C  C67  1  0.19019080  0.33390949  0.41125402  1
  H  H68  1  0.30093700  0.34265999  0.38792753  1
  C  C69  1  0.37244174  0.39186064  0.47967855  1
  H  H70  1  0.33955834  0.41445370  0.31126633  1
  H  H71  1  0.39147767  0.38843593  0.42408119  1
  C  C72  1  0.36257037  0.38904362  0.29102152  1
  C  C73  1  0.15548263  0.34517089  0.47732841  1
  C  C74  1  0.23602300  0.37324747  0.25742431  1
  C  C75  1  0.28184644  0.13699054  0.65314422  1
  C  C76  1  0.31242355  0.10150321  0.66241054  1
  C  C77  1  0.40376718  0.08370149  0.61869305  1
  H  H78  1  0.42454626  0.05609108  0.62683998  1
  H  H79  1  0.26758702  0.08558922  0.70262985  1
  C  C80  1  0.46698900  0.10207150  0.56395315  1
  H  H81  1  0.20023834  0.11444433  0.54464792  1
  C  C82  1  0.34301700  0.15464800  0.59607818  1
  C  C83  1  0.22192089  0.16246466  0.70261637  1
  C  C84  1  0.43849754  0.13709408  0.55481095  1
  H  H85  1  0.47573192  0.14821948  0.50510372  1
  H  H86  1  0.33484599  0.18264681  0.59040099  1
  H  H87  1  0.14925365  0.20529134  0.64043238  1
  C  C88  1  0.17012196  0.19745969  0.69226687  1
  H  H89  1  0.41236927  0.23976958  0.59747016  1
  H  H90  1  0.11380395  0.24496483  0.73530695  1
  C  C91  1  0.14121806  0.21792552  0.74720649  1
  H  H92  1  0.48932799  0.23220956  0.51525484  1
  H  H93  1  0.45637034  0.23755060  0.72203965  1
  H  H94  1  0.16829150  0.36026513  0.60888572  1
  C  C95  1  0.07902211  0.35948939  0.72082665  1
  C  C96  1  0.03748758  0.39322006  0.70276288  1
  C  C97  1  0.01156735  0.33030766  0.68103455  1
  H  H98  1  0.13091412  0.26461952  0.57841139  1
  H  H99  1  0.23587498  0.31443372  0.64763930  1
  C  C100  1  0.05899435  0.27848202  0.61395787  1
  C  C101  1  0.11417790  0.30694759  0.64673342  1
  C  C102  1  0.47747445  0.29310647  0.72992721  1
  C  C103  1  0.45059624  0.26231033  0.69723195  1
  C  C104  1  0.42866662  0.26351300  0.62700108  1
  C  C105  1  0.45773205  0.29578535  0.59401217  1
  Cu  Cu106  1  0.47937592  0.48488192  0.73742678  1
  H  H107  1  0.30112899  0.39899268  0.66870637  1
  C  C108  1  0.25923776  0.37172796  0.50931227  1
  C  C109  1  0.09914272  0.42184373  0.73353483  1
  C  C110  1  0.33595475  0.39625442  0.61695093  1
  C  C111  1  0.25287013  0.37376401  0.57936409  1
  C  C112  1  0.44217258  0.41819373  0.58606882  1
  C  C113  1  0.01800187  0.33640326  0.51371187  1
  H  H114  1  0.00385336  0.34255454  0.56515889  1
  H  H115  1  0.07283666  0.44667892  0.71811835  1
  C  C116  1  0.49733016  0.29028314  0.52228797  1
  H  H117  1  0.49693333  0.34687014  0.50993374  1
  O  O118  1  0.47541504  0.44189686  0.69215925  1
  H  H119  1  0.48534249  0.35093792  0.72753317  1
  C  C120  1  0.48191242  0.32613817  0.69977880  1
  C  C121  1  0.46099206  0.41395315  0.51726318  1
  C  C122  1  0.48207301  0.32736659  0.62973918  1
  H  H123  1  0.25854946  0.12398261  0.78436326  1
  O  O124  1  0.13003883  0.04570647  0.93934743  1
  C  C125  1  0.08865476  0.11332651  0.97069604  1
  C  C126  1  0.23413348  0.15107043  0.77198758  1
  O  O127  1  0.48809994  0.03463156  0.90120709  1
  C  C128  1  0.07133395  0.06523199  0.89405961  1
  C  C129  1  0.03960912  0.10142127  0.90729150  1
  C  C130  1  0.05221526  0.14616881  0.99131843  1
  Cu  Cu131  1  0.39626908  0.00054144  0.95260447  1
  H  H132  1  0.16702860  0.09663261  0.99858989  1
  H  H133  1  0.21884060  0.16422127  0.87981763  1
  C  C134  1  0.21225880  0.17261333  0.82666982  1
  C  C135  1  0.17449675  0.20766679  0.81436022  1
  N  N136  1  0.19186813  0.23288904  0.86340070  1
  C  C137  1  0.25599278  0.22453971  0.92607203  1
  C  C138  1  0.40352209  0.20955633  0.92758705  1
  H  H139  1  0.45969956  0.20464214  0.88138536  1
  H  H140  1  0.06938284  0.24877372  0.98203216  1
  C  C141  1  0.17930641  0.23592482  0.98670019  1
  C  C142  1  0.47477021  0.20123085  0.98912370  1
  Cu  Cu143  1  0.09275871  0.00744742  0.81786983  1
  O  O144  1  0.02358790  0.05180162  0.84082689  1
  H  H145  1  0.48238718  0.06723295  0.80253977  1
  O  O146  1  0.49244363  0.06570166  0.99240316  1
  C  C147  1  0.49824115  0.29148173  0.80954651  1
  H  H148  1  0.22140954  0.32630009  0.79130083  1
  C  C149  1  0.20138544  0.29345196  0.89059685  1
  C  C150  1  0.11661448  0.26468127  0.86152598  1
  H  H151  1  0.32378709  0.28979327  0.90953986  1
  C  C152  1  0.12184055  0.32341139  0.90381590  1
  C  C153  1  0.21089553  0.41468240  0.78339274  1
  H  H154  1  0.03888747  0.39059531  0.85626454  1
  C  C155  1  0.25198185  0.38103231  0.80608758  1
  H  H156  1  0.17247937  0.34631815  0.92634814  1
  H  H157  1  0.33114297  0.37747500  0.85013292  1
  C  C158  1  0.18776200  0.35328314  0.77272534  1
  Cu  Cu159  1  0.32936393  0.45787476  0.95535247  1
  C  C160  1  0.30224429  0.44290515  0.81306206  1
  O  O161  1  0.16505177  0.48208332  0.93229451  1
  O  O162  1  0.36934388  0.43721874  0.86670626  1
  O  O163  1  0.30962483  0.47160829  0.78412149  1
  H  H164  1  0.11054321  0.36944237  0.98220185  1
  C  C165  1  0.15809494  0.62610868  0.08376282  1
  C  C166  1  0.08205074  0.64799719  0.03720633  1
  H  H167  1  0.27073261  0.63078727  0.10049706  1
  H  H168  1  0.13617871  0.58176056  0.14703952  1
  C  C169  1  0.07673878  0.59851094  0.10995542  1
  C  C170  1  0.34639017  0.55497493  0.19612635  1
  C  C171  1  0.36997140  0.59199383  0.19901216  1
  C  C172  1  0.40897521  0.66169234  0.19443780  1
  O  O173  1  0.42389293  0.53794374  0.15927758  1
  Cu  Cu174  1  0.07473685  0.51055206  0.19076578  1
  O  O175  1  0.15831736  0.51541079  0.02165556  1
  O  O176  1  0.22267988  0.54141402  0.22228924  1
  C  C177  1  0.49298742  0.60493165  0.16089447  1
  C  C178  1  0.28533371  0.64796176  0.23297070  1
  C  C179  1  0.26942167  0.61247044  0.23765072  1
  H  H180  1  0.15121889  0.57892090  0.00292950  1
  H  H181  1  0.36997156  0.68116711  0.08784781  1
  C  C182  1  0.31022654  0.69345464  0.04596270  1
  C  C183  1  0.40751603  0.70045689  0.18807618  1
  C  C184  1  0.37469633  0.72461001  0.02385343  1
  C  C185  1  0.27793803  0.72315509  0.18549387  1
  C  C186  1  0.17108051  0.67978240  0.01858659  1
  H  H187  1  0.47988481  0.73557147  0.04265771  1
  H  H188  1  0.16026585  0.71088131  0.18507207  1
  O  O189  1  0.31154015  0.96699472  0.00935902  1
  C  C190  1  0.30423059  0.75731782  0.19245240  1
  N  N191  1  0.47096762  0.80664559  0.20029062  1
  H  H192  1  0.10914665  0.78823156  0.08833490  1
  H  H193  1  0.21355108  0.77661563  0.19652570  1
  C  C194  1  0.44030358  0.80392441  0.01510382  1
  H  H195  1  0.37647954  0.78783884  0.04754471  1
  C  C196  1  0.45621376  0.77145148  0.19209686  1
  C  C197  1  0.34327550  0.82438058  0.22513251  1
  C  C198  1  0.05350914  0.79889010  0.04469155  1
  H  H199  1  0.20883199  0.90615394  0.01979287  1
  H  H200  1  0.45352688  0.90453371  0.08140442  1
  C  C201  1  0.21571271  0.97481847  0.05334937  1
  C  C202  1  0.12134911  0.94809234  0.08262174  1
  H  H203  1  0.49196165  0.84258470  0.08916974  1
  C  C204  1  0.30341261  0.85436417  0.18708467  1
  C  C205  1  0.01394981  0.89155962  0.07818047  1
  H  H206  1  0.37556144  0.86280672  0.14786471  1
  C  C207  1  0.12853227  0.91383102  0.06016189  1
  H  H208  1  0.01232908  0.98516704  0.15533361  1
  C  C209  1  0.01908394  0.95993863  0.13577054  1
  H  H210  1  0.15283010  0.89972163  0.19478351  1
  C  C211  1  0.18588492  0.87322833  0.21448064  1
  C  C212  1  0.11955158  0.82349885  0.00645331  1
  H  H213  1  0.23134554  0.83302812  0.02396899  1
  H  H214  1  0.18046228  0.59975486  0.26674880  1
  H  H215  1  0.01507034  0.63271226  0.47963784  1
  H  H216  1  0.20285755  0.66599675  0.25859078  1
  C  C217  1  0.44940242  0.67687370  0.43554358  1
  O  O218  1  0.33896812  0.69408843  0.44838914  1
  H  H219  1  0.45792491  0.73508444  0.38389215  1
  O  O220  1  0.47153424  0.64638935  0.46470389  1
  C  C221  1  0.26349867  0.81152746  0.28261005  1
  H  H222  1  0.30977273  0.78817219  0.30689749  1
  C  C223  1  0.13254666  0.82863753  0.30615752  1
  C  C224  1  0.10934480  0.86140960  0.27363836  1
  H  H225  1  0.13373620  0.93361281  0.28102627  1
  C  C226  1  0.01017094  0.88630814  0.31326226  1
  C  C227  1  0.03094490  0.92225935  0.30652755  1
  H  H228  1  0.06845642  0.81994382  0.35042263  1
  C  C229  1  0.20680582  0.59194417  0.63966050  1
  H  H230  1  0.26408102  0.58150319  0.68114118  1
  C  C231  1  0.27098177  0.62241137  0.60903677  1
  C  C232  1  0.38053415  0.64730060  0.63944617  1
  C  C233  1  0.07822194  0.57812653  0.61303184  1
  C  C234  1  0.07007039  0.62044557  0.52392713  1
  C  C235  1  0.19998254  0.63552453  0.54791647  1
  H  H236  1  0.41575966  0.61313845  0.72589511  1
  H  H237  1  0.02888613  0.55408078  0.63096128  1
  C  C238  1  0.45009366  0.63712268  0.70305512  1
  C  C239  1  0.00201324  0.59249226  0.55749120  1
  H  H240  1  0.24066147  0.66037043  0.52590312  1
  H  H241  1  0.29945907  0.69317392  0.74741169  1
  C  C242  1  0.21439982  0.74668340  0.73427970  1
  C  C243  1  0.00628428  0.68872162  0.61474068  1
  H  H244  1  0.37842109  0.68673601  0.56723125  1
  C  C245  1  0.43037854  0.67915041  0.61394269  1
  C  C246  1  0.10809034  0.69893965  0.66312050  1
  H  H247  1  0.17059509  0.68047761  0.69533130  1
  C  C248  1  0.12345917  0.73489544  0.67379027  1
  H  H249  1  0.18769832  0.80332113  0.72807759  1
  H  H250  1  0.06480862  0.78646028  0.63514010  1
  C  C251  1  0.04953570  0.75860325  0.63150691  1
  C  C252  1  0.12786876  0.57650172  0.94957385  1
  C  C253  1  0.14063517  0.54339335  0.91976553  1
  C  C254  1  0.10911872  0.60380684  0.90576046  1
  H  H255  1  0.12220017  0.62886023  0.92442372  1
  C  C256  1  0.12022278  0.53993902  0.85011756  1
  C  C257  1  0.08392754  0.59945418  0.83437685  1
  H  H258  1  0.13527130  0.51338008  0.83391656  1
  C  C259  1  0.09242584  0.56565447  0.80421714  1
  H  H260  1  0.36717032  0.64031908  0.91023205  1
  H  H261  1  0.34459221  0.58133710  0.84254972  1
  C  C262  1  0.03352752  0.63072136  0.79447947  1
  C  C263  1  0.15111636  0.51324730  0.96141799  1
  C  C264  1  0.46744135  0.62491786  0.89065720  1
  C  C265  1  0.45656530  0.59396726  0.85377989  1
  O  O266  1  0.48651591  0.52861347  0.77979527  1
  C  C267  1  0.04491412  0.66421769  0.82613259  1
  H  H268  1  0.12532456  0.67041266  0.86475551  1
  C  C269  1  0.16667507  0.73069295  0.94663103  1
  C  C270  1  0.36737061  0.72481627  0.82929801  1
  H  H271  1  0.10244112  0.74361919  0.90741545  1
  C  C272  1  0.30938743  0.74256870  0.96721332  1
  C  C273  1  0.29951969  0.71945832  0.76772332  1
  C  C274  1  0.10170943  0.70049345  0.96928394  1
  H  H275  1  0.43293730  0.70497237  0.85837569  1
  H  H276  1  0.09716263  0.56053609  0.75052852  1
  H  H277  1  0.29117999  0.81447857  0.84240161  1
  C  C278  1  0.29806902  0.78839159  0.82007536  1
  C  C279  1  0.23645802  0.78171600  0.75591555  1
  C  C280  1  0.45175106  0.79564673  0.94460090  1
  C  C281  1  0.35214209  0.75934521  0.85583674  1
  N  N282  1  0.39227431  0.76480202  0.92307104  1
  C  C283  1  0.12458776  0.91463205  0.83755278  1
  C  C284  1  0.26625830  0.87611004  0.93701533  1
  H  H285  1  0.43653608  0.91704825  0.94262407  1
  C  C286  1  0.33712023  0.90678278  0.91792400  1
  H  H287  1  0.32088546  0.85956155  0.97600983  1
  C  C288  1  0.11961464  0.86595962  0.91523666  1
  O  O289  1  0.43948164  0.96946005  0.88354591  1
  H  H290  1  0.07708843  0.92912276  0.79641320  1
  C  C291  1  0.04214733  0.83618014  0.94824874  1
  C  C292  1  0.33361799  0.95761694  0.84644231  1
  O  O293  1  0.26557346  0.97689246  0.80478329  1
  C  C294  1  0.26542355  0.92567449  0.86742314  1
  C  C295  1  0.04925049  0.88599543  0.86302888  1
  C  C296  1  0.79978555  0.12061567  0.19081438  1
  O  O297  1  0.80175818  0.06199606  0.12126962  1
  Cu  Cu298  1  0.64039479  0.06432624  0.05782119  1
  O  O299  1  0.65667130  0.01567522  0.05282087  1
  H  H300  1  0.70473365  0.10213879  0.20135683  1
  C  C301  1  0.93220139  0.11057439  0.15457542  1
  C  C302  1  0.79348519  0.15487642  0.21077557  1
  C  C303  1  0.92530021  0.07826113  0.11887581  1
  H  H304  1  0.91396094  0.17516650  0.08435885  1
  C  C305  1  0.87769670  0.19726645  0.05498288  1
  C  C306  1  0.81934670  0.22604969  0.08550838  1
  H  H307  1  0.79726490  0.22423655  0.14051833  1
  C  C308  1  0.92620127  0.17567799  0.20182625  1
  H  H309  1  0.68844808  0.16572037  0.23224139  1
  C  C310  1  0.91774578  0.20879964  0.23993974  1
  H  H311  1  0.66643662  0.21295607  0.22161614  1
  C  C312  1  0.76616694  0.22389666  0.24783256  1
  C  C313  1  0.93551600  0.45466359  0.12893624  1
  H  H314  1  0.73577524  0.33181848  0.19078333  1
  C  C315  1  0.76760754  0.25536214  0.04720410  1
  N  N316  1  0.75360443  0.28765620  0.07809823  1
  C  C317  1  0.87319073  0.29646973  0.12329731  1
  C  C318  1  0.63456844  0.30893536  0.06221271  1
  C  C319  1  0.85035670  0.31972377  0.17950207  1
  C  C320  1  0.97656431  0.33252451  0.21452605  1
  O  O321  1  0.96501617  0.47034559  0.18173436  1
  H  H322  1  0.91474419  0.40722500  0.02316840  1
  C  C323  1  0.66501220  0.34442007  0.07936862  1
  H  H324  1  0.78110795  0.35655920  0.09083263  1
  Cu  Cu325  1  0.74360403  0.49847162  0.03878269  1
  O  O326  1  0.81251517  0.45968009  0.09603512  1
  H  H327  1  0.56287027  0.39253268  0.08618117  1
  C  C328  1  0.54024525  0.36538676  0.07906675  1
  Cu  Cu329  1  0.58344933  0.01604833  0.45904050  1
  Cu  Cu330  1  0.51885353  0.11256639  0.38816067  1
  O  O331  1  0.60974107  0.09424971  0.46392490  1
  H  H332  1  0.64106947  0.23052722  0.41279096  1
  C  C333  1  0.73518743  0.24969150  0.29182951  1
  H  H334  1  0.92789586  0.24531711  0.48571376  1
  H  H335  1  0.66683343  0.34073124  0.40709140  1
  C  C336  1  0.64752527  0.39151113  0.32842209  1
  H  H337  1  0.96052842  0.34975055  0.25976926  1
  O  O338  1  0.61063026  0.41819011  0.35807078  1
  C  C339  1  0.63309175  0.31799608  0.43456331  1
  N  N340  1  0.83445779  0.28370194  0.38455338  1
  C  C341  1  0.62001482  0.25556675  0.43883725  1
  C  C342  1  0.69035147  0.28533108  0.41259352  1
  C  C343  1  0.86380427  0.26077589  0.33239646  1
  H  H344  1  0.62387086  0.25869265  0.30233896  1
  C  C345  1  0.50213233  0.37202421  0.29295311  1
  H  H346  1  0.63906825  0.32553377  0.27009642  1
  C  C347  1  0.92368211  0.31338348  0.48142602  1
  O  O348  1  0.77616355  0.38013996  0.32458149  1
  C  C349  1  0.95451852  0.30172879  0.41613823  1
  C  C350  1  0.52335556  0.33845692  0.26844920  1
  H  H351  1  0.54371267  0.43106485  0.49358629  1
  C  C352  1  0.53096939  0.25754787  0.49546764  1
  C  C353  1  0.53427887  0.32203684  0.48821738  1
  H  H354  1  0.55717943  0.14592203  0.67084027  1
  H  H355  1  0.53939130  0.11601676  0.72564521  1
  C  C356  1  0.54827602  0.08075539  0.51449183  1
  C  C357  1  0.61983369  0.16880384  0.68534820  1
  H  H358  1  0.67647379  0.18184375  0.58358827  1
  C  C359  1  0.67386260  0.19101995  0.63710235  1
  C  C360  1  0.74104453  0.22375983  0.65605702  1
  N  N361  1  0.85478672  0.23575777  0.61393224  1
  C  C362  1  0.92685403  0.21242953  0.57060920  1
  C  C363  1  0.73636765  0.23557862  0.72426944  1
  O  O364  1  0.56608091  0.04886775  0.52448080  1
  C  C365  1  0.95991119  0.21912301  0.50075641  1
  H  H366  1  0.90941290  0.16810954  0.64070818  1
  C  C367  1  0.94563468  0.17713158  0.59196702  1
  C  C368  1  0.99719013  0.15153977  0.54918720  1
  H  H369  1  0.99903100  0.12412798  0.56645227  1
  H  H370  1  0.78390099  0.26196502  0.73819752  1
  C  C371  1  0.85050975  0.32625518  0.67803600  1
  H  H372  1  0.67614444  0.28925271  0.65635986  1
  C  C373  1  0.79868681  0.29462172  0.65419276  1
  C  C374  1  0.90076449  0.26948829  0.62679901  1
  H  H375  1  0.81884388  0.30373859  0.50524199  1
  H  H376  1  0.76625976  0.34505308  0.70161981  1
  C  C377  1  0.53067857  0.44027431  0.63106731  1
  H  H378  1  0.50709190  0.35121992  0.60321923  1
  O  O379  1  0.63753177  0.45707913  0.61320465  1
  H  H380  1  0.95524660  0.39625738  0.66183535  1
  C  C381  1  0.91443999  0.15456172  0.88339104  1
  C  C382  1  0.95716367  0.12237993  0.85994178  1
  H  H383  1  0.92842091  0.10953261  0.81113518  1
  C  C384  1  0.60251447  0.15526141  0.87861069  1
  C  C385  1  0.58532030  0.15359450  0.80695541  1
  H  H386  1  0.60264848  0.12779274  0.97509006  1
  C  C387  1  0.57228779  0.12723168  0.91998615  1
  C  C388  1  0.93708467  0.16472626  0.95199770  1
  C  C389  1  0.55105058  0.12042918  0.77981714  1
  O  O390  1  0.86538237  0.00669488  0.98892765  1
  C  C391  1  0.53805733  0.09447639  0.89162111  1
  C  C392  1  0.52495453  0.09143982  0.82104327  1
  Cu  Cu393  1  0.61556183  0.00082264  0.86794913  1
  H  H394  1  0.85689272  0.17095875  0.84634126  1
  C  C395  1  0.50644954  0.06351362  0.93141375  1
  H  H396  1  0.66025206  0.17801299  0.90019798  1
  H  H397  1  0.66889204  0.22023497  0.82148237  1
  H  H398  1  0.80624330  0.22277650  0.88560444  1
  C  C399  1  0.81333872  0.22354515  0.94234113  1
  C  C400  1  0.87504709  0.19593355  0.98205235  1
  C  C401  1  0.68116714  0.21224754  0.77101845  1
  H  H402  1  0.92979713  0.24590445  0.80055785  1
  H  H403  1  0.58684076  0.18788569  0.98842007  1
  C  C404  1  0.61989641  0.17888035  0.75443485  1
  H  H405  1  0.53983407  0.37541086  0.97152982  1
  C  C406  1  0.86176933  0.41838966  0.91047347  1
  C  C407  1  0.65193398  0.37974404  0.94742533  1
  C  C408  1  0.96446062  0.32335572  0.87831705  1
  H  H409  1  0.77168757  0.30113548  0.81826832  1
  C  C410  1  0.75674105  0.25155363  0.97534704  1
  C  C411  1  0.89475793  0.29849633  0.83784999  1
  H  H412  1  0.70214851  0.27285567  0.94936845  1
  C  C413  1  0.97573371  0.26779414  0.82885928  1
  H  H414  1  0.66904015  0.32606904  0.92564728  1
  O  O415  1  0.51291279  0.26478603  0.83959430  1
  C  C416  1  0.71653301  0.41346408  0.94165615  1
  H  H417  1  0.90240274  0.44495007  0.90697791  1
  C  C418  1  0.73078364  0.35123647  0.92432376  1
  C  C419  1  0.63500853  0.44228520  0.96767983  1
  C  C420  1  0.93658111  0.39004512  0.88568407  1
  C  C421  1  0.87748523  0.35620334  0.89249458  1
  O  O422  1  0.70097951  0.47145793  0.96694305  1
  O  O423  1  0.50249058  0.31942593  0.84021289  1
  O  O424  1  0.50141700  0.43841447  0.98970928  1
  C  C425  1  0.87248637  0.55605406  0.10887575  1
  O  O426  1  0.77023371  0.54100487  0.07874378  1
  O  O427  1  0.92540872  0.54486269  0.16366791  1
  C  C428  1  0.86487295  0.60867828  0.03210921  1
  H  H429  1  0.59714867  0.65133872  0.12398732  1
  C  C430  1  0.93958474  0.58851655  0.08157739  1
  H  H431  1  0.55718850  0.65617097  0.03126891  1
  C  C432  1  0.93212553  0.63913745  0.01445503  1
  H  H433  1  0.92919176  0.67165385  0.20969222  1
  H  H434  1  0.56254781  0.58655108  0.13139735  1
  H  H435  1  0.95901524  0.68958534  0.08741704  1
  C  C436  1  0.91407495  0.69777860  0.19454874  1
  C  C437  1  0.92996249  0.70753540  0.12836727  1
  H  H438  1  0.65402395  0.69661103  0.18588013  1
  H  H439  1  0.68273094  0.70815494  0.09538335  1
  C  C440  1  0.70189393  0.70400264  0.04204572  1
  C  C441  1  0.91961576  0.74379175  0.11110268  1
  C  C442  1  0.55453547  0.71394555  0.18505115  1
  C  C443  1  0.58242288  0.74916806  0.17925188  1
  C  C444  1  0.87491087  0.72491129  0.24143419  1
  C  C445  1  0.63424668  0.67600741  0.00928352  1
  C  C446  1  0.51221278  0.64108911  0.15622651  1
  H  H447  1  0.75568034  0.60107769  0.01234529  1
  C  C448  1  0.79180355  0.72962007  0.00751101  1
  N  N449  1  0.87631571  0.75292775  0.04589564  1
  H  H450  1  0.96279787  0.79478416  0.15223339  1
  C  C451  1  0.91627577  0.76039696  0.22910301  1
  H  H452  1  0.70225094  0.75836405  0.17850888  1
  C  C453  1  0.70333780  0.81898873  0.13441251  1
  C  C454  1  0.94216809  0.76867666  0.16374101  1
  H  H455  1  0.69470387  0.79628625  0.10568544  1
  C  C456  1  0.59791355  0.82774080  0.18692878  1
  H  H457  1  0.99251125  0.86607194  0.05222582  1
  C  C458  1  0.55997168  0.91195111  0.05635804  1
  H  H459  1  0.52181022  0.96597902  0.08063424  1
  H  H460  1  0.90104756  0.83841741  0.08627987  1
  C  C461  1  0.61065982  0.85732133  0.22947203  1
  C  C462  1  0.59658683  0.94663306  0.05753257  1
  C  C463  1  0.81910493  0.84288890  0.12735069  1
  C  C464  1  0.64054856  0.88998777  0.01040325  1
  C  C465  1  0.71899209  0.88272235  0.21926540  1
  H  H466  1  0.84437352  0.94058925  0.20093665  1
  C  C467  1  0.82046447  0.87499849  0.16530874  1
  C  C468  1  0.72621982  0.95973488  0.02201025  1
  C  C469  1  0.50205983  0.83425677  0.03884915  1
  C  C470  1  0.92441256  0.93469816  0.16160514  1
  C  C471  1  0.74860732  0.99621195  0.02230983  1
  C  C472  1  0.92678653  0.90032943  0.13701835  1
  C  C473  1  0.90993192  0.78549783  0.02038222  1
  H  H474  1  0.69163626  0.63769406  0.38495736  1
  O  O475  1  0.77939635  0.59515198  0.48912298  1
  H  H476  1  0.88806561  0.66139297  0.30608767  1
  C  C477  1  0.68592702  0.66414935  0.36971019  1
  C  C478  1  0.78622234  0.67727392  0.32415683  1
  C  C479  1  0.56953593  0.68725329  0.38844140  1
  C  C480  1  0.77630781  0.71137507  0.29587205  1
  C  C481  1  0.55395257  0.72051144  0.36124234  1
  C  C482  1  0.64973481  0.73294607  0.31244170  1
  O  O483  1  0.73568289  0.71912395  0.49292926  1
  H  H484  1  0.73502825  0.90476988  0.25098638  1
  C  C485  1  0.79563661  0.89582246  0.38735738  1
  H  H486  1  0.62942534  0.75894816  0.28717049  1
  C  C487  1  0.69761813  0.95430400  0.41313002  1
  C  C488  1  0.93034922  0.94493554  0.33777434  1
  H  H489  1  0.53817914  0.86248334  0.27019749  1
  O  O490  1  0.60402060  0.94010630  0.44573109  1
  H  H491  1  0.70929355  0.88831803  0.42542652  1
  C  C492  1  0.81127467  0.93114476  0.37708944  1
  O  O493  1  0.70526900  0.98731574  0.41026044  1
  H  H494  1  0.88133097  0.84485766  0.36355841  1
  C  C495  1  0.89285041  0.87308251  0.35522172  1
  H  H496  1  0.94320368  0.97183689  0.33544826  1
  H  H497  1  0.92299478  0.77911245  0.26868732  1
  H  H498  1  0.76012011  0.64652450  0.67405242  1
  O  O499  1  0.80876447  0.55120668  0.56069264  1
  C  C500  1  0.85638625  0.57636056  0.53299696  1
  C  C501  1  0.84507812  0.65055073  0.71624264  1
  C  C502  1  0.55168319  0.65814406  0.73672969  1
  H  H503  1  0.92968519  0.59751166  0.71433465  1
  C  C504  1  0.93711046  0.62382763  0.73885174  1
  H  H505  1  0.97796517  0.65988112  0.60808887  1
  C  C506  1  0.93573778  0.74871347  0.58716631  1
  O  O507  1  0.79323395  0.66553637  0.52466685  1
  C  C508  1  0.91295927  0.71253391  0.57960886  1
  C  C509  1  0.54868411  0.69873525  0.63919174  1
  C  C510  1  0.60132624  0.69011503  0.70393588  1
  H  H511  1  0.59188916  0.72317771  0.61338853  1
  C  C512  1  0.80110852  0.70043008  0.52916944  1
  N  N513  1  0.73352816  0.70590686  0.72835930  1
  C  C514  1  0.73629413  0.74242928  0.73427105  1
  C  C515  1  0.84796683  0.68357566  0.74831263  1
  Cu  Cu516  1  0.64722027  0.63340870  0.50882956  1
  H  H517  1  0.86633734  0.76649331  0.55854773  1
  H  H518  1  0.50081636  0.75007559  0.69831630  1
  C  C519  1  0.60417279  0.76174168  0.72126670  1
  C  C520  1  0.60807508  0.79753914  0.73021319  1
  C  C521  1  0.74312805  0.81475916  0.74980206  1
  H  H522  1  0.50928438  0.81342967  0.71963141  1
  H  H523  1  0.97262552  0.92506365  0.70010118  1
  C  C524  1  0.89573255  0.90803802  0.72697386  1
  H  H525  1  0.94743386  0.85639672  0.68684435  1
  C  C526  1  0.87775213  0.87267921  0.71909571  1
  C  C527  1  0.61354414  0.64140732  0.89638990  1
  C  C528  1  0.75176154  0.62626601  0.87549421  1
  C  C529  1  0.73889030  0.59521358  0.84047102  1
  C  C530  1  0.59581857  0.58094185  0.82763668  1
  H  H531  1  0.86704115  0.63862879  0.88099403  1
  C  C532  1  0.60584053  0.54745895  0.78870082  1
  H  H533  1  0.85198766  0.58110586  0.82979485  1
  H  H534  1  0.60075216  0.65054868  0.78576141  1
  H  H535  1  0.87431302  0.65509014  0.97549027  1
  O  O536  1  0.71948078  0.54071953  0.75685331  1
  H  H537  1  0.97847176  0.71516421  0.82569019  1
  C  C538  1  0.65064309  0.67368415  0.93847676  1
  H  H539  1  0.99358731  0.69335750  0.94754181  1
  H  H540  1  0.70882258  0.70306950  0.84421610  1
  C  C541  1  0.71904294  0.70131216  0.90073455  1
  C  C542  1  0.78410529  0.72914320  0.93486822  1
  C  C543  1  0.96374593  0.69092236  0.80111537  1
  H  H544  1  0.97310412  0.74510514  0.75526578  1
  C  C545  1  0.76323542  0.85390500  0.75303124  1
  H  H546  1  0.55098548  0.80847076  0.84617947  1
  H  H547  1  0.83273129  0.75003520  0.90371170  1
  C  C548  1  0.83190422  0.80024939  0.96419704  1
  H  H549  1  0.70878820  0.79364206  0.95834593  1
  C  C550  1  0.54310389  0.81494600  0.89951644  1
  C  C551  1  0.90499296  0.82266466  0.92084686  1
  H  H552  1  0.67268394  0.86259515  0.89430221  1
  C  C553  1  0.82190983  0.93724539  0.98453689  1
  C  C554  1  0.86981490  0.76062486  0.75274360  1
  C  C555  1  0.69110099  0.90649441  0.80824681  1
  C  C556  1  0.81056880  0.92504651  0.77747270  1
  H  H557  1  0.85299344  0.83061854  0.87242871  1
  H  H558  1  0.86544465  0.88528139  0.96090253  1
  H  H559  1  0.62504173  0.91685731  0.84861633  1
  H  H560  1  0.93460402  0.88067487  0.84017455  1
  C  C561  1  0.60700289  0.84499603  0.92540855  1
  H  H562  1  0.55698136  0.86204259  0.81854169  1
  H  H563  1  0.92094245  0.94795731  0.95868660  1
  C  C564  1  0.66151527  0.87235433  0.79642816  1
  O  O565  1  0.95380838  0.97680204  0.77195595  1
  C  C566  1  0.84825087  0.95932526  0.79859573  1
  C  C567  1  0.78187520  0.90254947  0.98309835  1
  O  O568  1  0.78325789  0.96958035  0.85110600  1
  C  C569  1  0.58448323  0.85456837  0.99373464  1
  C  C570  1  0.88196531  0.79627295  0.76201738  1
  H  H571  1  0.99235013  0.80820440  0.77830170  1
