# generated using pymatgen
data_Zn2H9C23O10
_symmetry_space_group_name_H-M   'P 1'
_cell_length_a   17.16930688
_cell_length_b   12.35303049
_cell_length_c   21.21171291
_cell_angle_alpha   90.00000000
_cell_angle_beta   90.00000000
_cell_angle_gamma   90.00000000
_symmetry_Int_Tables_number   1
_chemical_formula_structural   Zn2H9C23O10
_chemical_formula_sum   'Zn8 H36 C92 O40'
_cell_volume   4498.85521980
_cell_formula_units_Z   4
loop_
 _symmetry_equiv_pos_site_id
 _symmetry_equiv_pos_as_xyz
  1  'x, y, z'
loop_
 _atom_site_type_symbol
 _atom_site_label
 _atom_site_symmetry_multiplicity
 _atom_site_fract_x
 _atom_site_fract_y
 _atom_site_fract_z
 _atom_site_occupancy
  C  C0  1  0.26060705  0.25980488  0.03992996  1
  H  H1  1  0.15743508  0.19881311  0.17169376  1
  H  H2  1  0.30522860  0.32024568  0.02629671  1
  C  C3  1  0.22301284  0.27333097  0.09700761  1
  C  C4  1  0.18157395  0.19047070  0.12450029  1
  C  C5  1  0.23143863  0.37652339  0.13243754  1
  C  C6  1  0.17328707  0.09604386  0.08660934  1
  C  C7  1  0.05438651  0.01886034  0.13821993  1
  H  H8  1  0.02736417  0.09889202  0.13423272  1
  C  C9  1  0.20984328  0.07749242  0.02732937  1
  O  O10  1  0.19626156  0.38828366  0.18489122  1
  O  O11  1  0.28532281  0.43866731  0.11431737  1
  C  C12  1  0.25043247  0.16739541  0.00028674  1
  C  C13  1  0.40417031  0.26959899  0.38483291  1
  H  H14  1  0.23242269  0.47263375  0.41222268  1
  C  C15  1  0.39121845  0.35283295  0.34268585  1
  H  H16  1  0.42535175  0.36371852  0.29978433  1
  C  C17  1  0.32734500  0.42420010  0.35392206  1
  C  C18  1  0.28077074  0.41564848  0.40871284  1
  C  C19  1  0.35573927  0.25568476  0.43719940  1
  C  C20  1  0.29669105  0.33156492  0.45182080  1
  H  H21  1  0.36499865  0.18933361  0.46611108  1
  O  O22  1  0.05646159  0.41354884  0.29500369  1
  C  C23  1  0.47580636  0.19264469  0.37312738  1
  C  C24  1  0.01443854  0.47466469  0.32858437  1
  O  O25  1  0.48804627  0.11825429  0.41066177  1
  Zn  Zn26  1  0.15210250  0.49613333  0.25146250  1
  O  O27  1  0.24707239  0.03630012  0.61148056  1
  C  C28  1  0.03551211  0.47868883  0.63678743  1
  C  C29  1  0.20035856  0.21181582  0.59841737  1
  C  C30  1  0.15135750  0.29400046  0.61919338  1
  C  C31  1  0.15515705  0.38886228  0.58505684  1
  C  C32  1  0.24584414  0.22311596  0.54401840  1
  H  H33  1  0.11590380  0.29208894  0.66461416  1
  O  O34  1  0.17540122  0.10497115  0.68816002  1
  C  C35  1  0.20354935  0.10624583  0.63404511  1
  C  C36  1  0.20398420  0.41433285  0.53277024  1
  H  H37  1  0.00132516  0.39936910  0.63520982  1
  C  C38  1  0.11035921  0.48939138  0.61073931  1
  H  H39  1  0.27802159  0.15277879  0.52450282  1
  C  C40  1  0.24704460  0.32316435  0.51193854  1
  H  H41  1  0.21673232  0.49939230  0.51572136  1
  H  H42  1  0.43197948  0.13388552  0.78816223  1
  C  C43  1  0.32552454  0.07212134  0.83768184  1
  C  C44  1  0.29011481  0.16184146  0.93628546  1
  C  C45  1  0.40902253  0.20809937  0.87932018  1
  C  C46  1  0.27330685  0.08224958  0.88871717  1
  C  C47  1  0.39114250  0.13692090  0.83048604  1
  O  O48  1  0.03635091  0.14082791  0.78849893  1
  C  C49  1  0.36033400  0.21975424  0.93104194  1
  H  H50  1  0.21708165  0.03884838  0.89130326  1
  H  H51  1  0.38198934  0.27144460  0.97068883  1
  C  C52  1  0.48300649  0.28235755  0.87550298  1
  O  O53  1  0.48896479  0.36021781  0.91204725  1
  C  C54  1  0.00577736  0.05993083  0.80877809  1
  H  H55  1  0.20390809  0.00134487  0.99655633  1
  C  C56  1  0.04518987  0.83233460  0.17172134  1
  C  C57  1  0.44226717  0.71984474  0.11576143  1
  O  O58  1  0.21838266  0.68857225  0.13454368  1
  O  O59  1  0.42184153  0.64968378  0.07880508  1
  C  C60  1  0.11772090  0.81350164  0.14385958  1
  C  C61  1  0.16468138  0.88995574  0.11264020  1
  O  O62  1  0.40589846  0.72445607  0.16619663  1
  Zn  Zn63  1  0.32387769  0.58916284  0.15389650  1
  O  O64  1  0.11621773  0.63640132  0.18791137  1
  C  C65  1  0.14965645  0.70090995  0.15373096  1
  H  H66  1  0.22551683  0.87107924  0.10115321  1
  H  H67  1  0.01231121  0.76738047  0.19528038  1
  C  C68  1  0.12883375  0.99550133  0.11276376  1
  C  C69  1  0.01376930  0.93492573  0.16587206  1
  O  O70  1  0.24616431  0.55361595  0.31214826  1
  O  O71  1  0.04038841  0.56351380  0.34128490  1
  C  C72  1  0.30873575  0.50423568  0.30136356  1
  O  O73  1  0.34567122  0.50724530  0.25193296  1
  O  O74  1  0.21806621  0.78973373  0.62471651  1
  C  C75  1  0.44764097  0.79479977  0.63267621  1
  C  C76  1  0.14492531  0.78605476  0.63656679  1
  H  H77  1  0.20703419  0.60663520  0.58507305  1
  O  O78  1  0.10726392  0.86501161  0.65712229  1
  C  C79  1  0.03086226  0.67051995  0.65749722  1
  O  O80  1  0.43068723  0.86412058  0.59449693  1
  C  C81  1  0.10624468  0.67883897  0.62973732  1
  Zn  Zn82  1  0.30333962  0.90218388  0.65901827  1
  O  O83  1  0.41048072  0.78729738  0.68198660  1
  C  C84  1  0.14517294  0.59011066  0.60708298  1
  H  H85  1  0.00164308  0.74023084  0.67851224  1
  O  O86  1  0.34163501  0.98096816  0.74313281  1
  Zn  Zn87  1  0.13089524  0.96484380  0.73428293  1
  O  O88  1  0.23535755  0.94040539  0.79406091  1
  O  O89  1  0.04033765  0.96877496  0.80332066  1
  C  C90  1  0.30114652  0.98595069  0.79187460  1
  O  O91  1  0.90143462  0.03731369  0.19560226  1
  O  O92  1  0.69650165  0.02265529  0.19804058  1
  O  O93  1  0.69940094  0.22269759  0.34142568  1
  C  C94  1  0.81280644  0.33263776  0.34692405  1
  H  H95  1  0.71123307  0.41299610  0.38070182  1
  C  C96  1  0.77364353  0.42017551  0.37265975  1
  C  C97  1  0.88870063  0.34888457  0.32808947  1
  C  C98  1  0.77065250  0.22956767  0.33658776  1
  Zn  Zn99  1  0.61294823  0.08326261  0.34127842  1
  O  O100  1  0.81226365  0.15873126  0.30717229  1
  Zn  Zn101  1  0.79120326  0.01346708  0.25902316  1
  H  H102  1  0.91900450  0.28540287  0.29842011  1
  O  O103  1  0.51835393  0.21064451  0.32798276  1
  C  C104  1  0.93058681  0.44207445  0.34585449  1
  O  O105  1  0.88593744  0.46716532  0.69252880  1
  O  O106  1  0.69215657  0.45605930  0.70205471  1
  C  C107  1  0.62682350  0.49879839  0.70495962  1
  O  O108  1  0.81125859  0.36942524  0.82893568  1
  C  C109  1  0.81466185  0.18660317  0.85707448  1
  C  C110  1  0.77048091  0.09907776  0.87871764  1
  C  C111  1  0.89176928  0.17430648  0.83763138  1
  C  C112  1  0.77300487  0.29431898  0.85114802  1
  Zn  Zn113  1  0.61398166  0.41325194  0.83874659  1
  O  O114  1  0.70276159  0.29673322  0.86518264  1
  H  H115  1  0.70787644  0.10876043  0.89269137  1
  H  H116  1  0.92790253  0.24286058  0.81825236  1
  C  C117  1  0.92368677  0.07007560  0.83701747  1
  O  O118  1  0.53165939  0.27474516  0.83232865  1
  H  H119  1  0.74175472  0.00630262  0.99083241  1
  O  O120  1  0.58059180  0.48304205  0.75011948  1
  C  C121  1  0.60437482  0.91852449  0.15109246  1
  C  C122  1  0.62829762  0.85452832  0.04711883  1
  O  O123  1  0.89522025  0.86594595  0.21284525  1
  H  H124  1  0.69398596  0.98475536  0.09076710  1
  C  C125  1  0.65016059  0.92377307  0.09612688  1
  C  C126  1  0.55998684  0.78850516  0.04933660  1
  C  C127  1  0.51560147  0.78760012  0.10571381  1
  C  C128  1  0.53831172  0.85563137  0.15639231  1
  H  H129  1  0.54162877  0.73266888  0.01271577  1
  C  C130  1  0.93294942  0.94514139  0.19582743  1
  H  H131  1  0.50422762  0.85036549  0.19969151  1
  C  C132  1  0.63163535  0.97812424  0.20647975  1
  H  H133  1  0.92838200  0.60380011  0.39041208  1
  C  C134  1  0.76644348  0.70724357  0.38882981  1
  C  C135  1  0.76357884  0.60402650  0.41926673  1
  H  H136  1  0.80125701  0.72508554  0.34522291  1
  H  H137  1  0.65372811  0.85822624  0.49151978  1
  C  C138  1  0.71786938  0.89751893  0.37981898  1
  H  H139  1  0.71347534  0.51095317  0.49690822  1
  C  C140  1  0.72104182  0.79042344  0.41388495  1
  C  C141  1  0.68272983  0.78369746  0.47194352  1
  O  O142  1  0.76425505  0.90111719  0.33402173  1
  C  C143  1  0.72145863  0.59083922  0.47552574  1
  C  C144  1  0.89433957  0.52745404  0.37633846  1
  O  O145  1  0.67688068  0.97329052  0.39890262  1
  C  C146  1  0.81336111  0.51648513  0.38782093  1
  O  O147  1  0.58763177  0.98993813  0.25222944  1
  C  C148  1  0.65379234  0.59361724  0.60332001  1
  H  H149  1  0.70528631  0.54238957  0.59627286  1
  C  C150  1  0.60367699  0.57888138  0.65527200  1
  C  C151  1  0.63287494  0.67320387  0.56060220  1
  C  C152  1  0.56202723  0.73376232  0.56863338  1
  C  C153  1  0.53981616  0.64212704  0.67055944  1
  O  O154  1  0.88814655  0.63553385  0.71251981  1
  H  H155  1  0.54366192  0.79754835  0.53553274  1
  C  C156  1  0.51897166  0.71568616  0.62234248  1
  C  C157  1  0.91631262  0.55708508  0.68658716  1
  C  C158  1  0.99835709  0.56984698  0.65978793  1
  H  H159  1  0.50372105  0.62460606  0.71279225  1
  C  C160  1  0.68438943  0.68338464  0.50208185  1
  H  H161  1  0.78317677  0.79847161  0.82341544  1
  H  H162  1  0.90806929  0.90227378  0.85603328  1
  H  H163  1  0.63566491  0.68141998  0.98194514  1
  C  C164  1  0.69030821  0.62686714  0.86178868  1
  C  C165  1  0.70473981  0.72864480  0.90069260  1
  C  C166  1  0.75218169  0.80692151  0.87234785  1
  O  O167  1  0.72448984  0.62009802  0.81083607  1
  C  C168  1  0.76059602  0.90401023  0.90678341  1
  C  C169  1  0.66924832  0.74333730  0.95858680  1
  C  C170  1  0.73181444  0.92666124  0.96742089  1
  C  C171  1  0.88494640  0.98158420  0.85943463  1
  O  O172  1  0.64723067  0.55624596  0.88538485  1
  C  C173  1  0.80888801  0.99915166  0.88112589  1
  C  C174  1  0.67968924  0.84448482  0.98851700  1
  Zn  Zn175  1  0.79522787  0.50230070  0.76304999  1
