# generated using pymatgen
data_ZnH9(C3O)5
_symmetry_space_group_name_H-M   'P 1'
_cell_length_a   18.99415598
_cell_length_b   10.45834868
_cell_length_c   28.99257690
_cell_angle_alpha   90.00000000
_cell_angle_beta   90.00000000
_cell_angle_gamma   90.00000000
_symmetry_Int_Tables_number   1
_chemical_formula_structural   ZnH9(C3O)5
_chemical_formula_sum   'Zn16 H144 C240 O80'
_cell_volume   5759.30309671
_cell_formula_units_Z   16
loop_
 _symmetry_equiv_pos_site_id
 _symmetry_equiv_pos_as_xyz
  1  'x, y, z'
loop_
 _atom_site_type_symbol
 _atom_site_label
 _atom_site_symmetry_multiplicity
 _atom_site_fract_x
 _atom_site_fract_y
 _atom_site_fract_z
 _atom_site_occupancy
  H  H0  1  0.15773499  0.17703070  0.06591888  1
  O  O1  1  0.41113392  0.46895307  0.06629867  1
  C  C2  1  0.04148529  0.17574264  0.05959701  1
  H  H3  1  0.20856361  0.12838044  0.16485457  1
  H  H4  1  0.43220983  0.09491552  0.14212375  1
  H  H5  1  0.22664750  0.31932296  0.06668887  1
  C  C6  1  0.23445512  0.09252913  0.13305938  1
  C  C7  1  0.29897548  0.13649520  0.11980824  1
  H  H8  1  0.32545693  0.20371143  0.14188236  1
  C  C9  1  0.34870880  0.42750367  0.06994522  1
  H  H10  1  0.11950634  0.32872043  0.07201871  1
  C  C11  1  0.11257593  0.23757470  0.05240098  1
  C  C12  1  0.43540143  0.13934132  0.02090375  1
  O  O13  1  0.32023073  0.40407986  0.10827498  1
  H  H14  1  0.05417884  0.18818012  0.13478979  1
  C  C15  1  0.45287727  0.11851573  0.10706753  1
  C  C16  1  0.30893185  0.39555310  0.02615621  1
  C  C17  1  0.40718608  0.11412877  0.06605160  1
  C  C18  1  0.24447897  0.33266538  0.03153502  1
  C  C19  1  0.01737712  0.16827720  0.10632097  1
  C  C20  1  0.33010461  0.09301105  0.07684198  1
  O  O21  1  0.33428563  0.48333476  0.21445716  1
  C  C22  1  0.19416758  0.01011470  0.10345034  1
  O  O23  1  0.08538921  0.49088825  0.11463296  1
  C  C24  1  0.28803611  0.01499440  0.04876463  1
  O  O25  1  0.13573198  0.26116553  0.00020485  1
  C  C26  1  0.11115850  0.09179779  0.47648575  1
  O  O27  1  0.18966185  0.11706132  0.36483405  1
  C  C28  1  0.39162599  0.28102992  0.36891688  1
  C  C29  1  0.04906589  0.44399473  0.31399623  1
  H  H30  1  0.34467690  0.35429948  0.45138467  1
  C  C31  1  0.21476033  0.48313811  0.38933245  1
  C  C32  1  0.43076782  0.35736544  0.33369182  1
  O  O33  1  0.32874984  0.24897792  0.36175852  1
  H  H34  1  0.14030461  0.33326566  0.37721283  1
  H  H35  1  0.03182031  0.34364922  0.37948951  1
  C  C36  1  0.14275263  0.43794204  0.37372685  1
  C  C37  1  0.22174461  0.18777162  0.45414351  1
  H  H38  1  0.25682195  0.20710025  0.42399414  1
  H  H39  1  0.09928216  0.47571373  0.39540183  1
  C  C40  1  0.14632340  0.07828046  0.39384681  1
  C  C41  1  0.15927995  0.12317209  0.44298387  1
  C  C42  1  0.39345266  0.40179064  0.29453344  1
  H  H43  1  0.33661962  0.38244236  0.28950387  1
  O  O44  1  0.42632955  0.23269166  0.40149429  1
  Zn  Zn45  1  0.48268758  0.05890709  0.38812005  1
  C  C46  1  0.43511628  0.46351007  0.26274489  1
  Zn  Zn47  1  0.29717569  0.05206781  0.35312556  1
  H  H48  1  0.21468680  0.43904838  0.46258366  1
  O  O49  1  0.45697613  0.02664972  0.31770150  1
  H  H50  1  0.36731239  0.19574513  0.47225406  1
  H  H51  1  0.04250815  0.03092706  0.26096959  1
  C  C52  1  0.35886802  0.29642351  0.48388376  1
  H  H53  1  0.47061485  0.43409398  0.43867066  1
  C  C54  1  0.23969519  0.47982145  0.43506066  1
  O  O55  1  0.11455866  0.47347714  0.32270279  1
  C  C56  1  0.00999829  0.37448504  0.34695349  1
  H  H57  1  0.07299644  0.32364295  0.49817077  1
  C  C58  1  0.48476354  0.39514071  0.47325700  1
  C  C59  1  0.01240752  0.47733228  0.27280367  1
  H  H60  1  0.05629081  0.03960398  0.47289995  1
  C  C61  1  0.24082294  0.21592601  0.49932237  1
  H  H62  1  0.39343494  0.28309523  0.56982667  1
  C  C63  1  0.08725062  0.07734892  0.56530663  1
  O  O64  1  0.29940157  0.28187837  0.51328356  1
  C  C65  1  0.19337472  0.17198110  0.53342074  1
  O  O66  1  0.02556123  0.03220969  0.55882537  1
  C  C67  1  0.16935028  0.49241114  0.54581179  1
  C  C68  1  0.15418291  0.39114001  0.62356958  1
  C  C69  1  0.05200403  0.39134018  0.56698102  1
  H  H70  1  0.20408598  0.18148213  0.56984485  1
  C  C71  1  0.12937491  0.11651674  0.52224291  1
  C  C72  1  0.12671402  0.42518275  0.57898968  1
  H  H73  1  0.23949681  0.43213203  0.67129681  1
  H  H74  1  0.12303172  0.33473833  0.64854603  1
  C  C75  1  0.43702331  0.32052199  0.54961620  1
  O  O76  1  0.10914254  0.08468308  0.60502612  1
  C  C77  1  0.26550716  0.49205470  0.60047407  1
  C  C78  1  0.22328804  0.43081088  0.63514050  1
  H  H79  1  0.02249838  0.39216346  0.64081447  1
  C  C80  1  0.00542554  0.36933177  0.60537567  1
  H  H81  1  0.37789476  0.49379390  0.58903248  1
  C  C82  1  0.43197162  0.34047070  0.50194941  1
  O  O83  1  0.11206737  0.01505396  0.70515939  1
  C  C84  1  0.02920499  0.34005979  0.52368941  1
  C  C85  1  0.43196159  0.49108768  0.67428698  1
  C  C86  1  0.45654855  0.46988440  0.71950274  1
  O  O87  1  0.36718873  0.44974042  0.65949476  1
  H  H88  1  0.42143049  0.40720371  0.74236948  1
  C  C89  1  0.06028870  0.10873370  0.78871399  1
  C  C90  1  0.40954019  0.06707039  0.81111567  1
  C  C91  1  0.07415327  0.22019028  0.86597781  1
  C  C92  1  0.19833341  0.31288512  0.99442931  1
  H  H93  1  0.43576695  0.16837542  0.87409862  1
  O  O94  1  0.13800667  0.24340714  0.85793106  1
  Zn  Zn95  1  0.16124568  0.45423656  0.85444878  1
  C  C96  1  0.45465440  0.13520910  0.84088219  1
  O  O97  1  0.49716985  0.46374633  0.81588227  1
  O  O98  1  0.27459997  0.43122142  0.86628328  1
  C  C99  1  0.03058967  0.14177805  0.83116939  1
  H  H100  1  0.19504049  0.33580173  0.92120968  1
  C  C101  1  0.31746168  0.08483352  0.86975158  1
  H  H102  1  0.31373632  0.19319976  0.86221269  1
  H  H103  1  0.11715506  0.12630298  0.78155042  1
  C  C104  1  0.22753509  0.35093334  0.95246258  1
  C  C105  1  0.23246518  0.04355800  0.93924010  1
  C  C106  1  0.31392367  0.45478083  0.89967990  1
  Zn  Zn107  1  0.47559830  0.46223660  0.88975790  1
  C  C108  1  0.01794665  0.03747025  0.75991516  1
  C  C109  1  0.29287417  0.41245826  0.94711550  1
  C  C110  1  0.33521208  0.44204023  0.98534884  1
  O  O111  1  0.04006009  0.26688261  0.89845149  1
  H  H112  1  0.26361395  0.09711667  0.96499345  1
  H  H113  1  0.01847824  0.15129344  0.98502171  1
  H  H114  1  0.14698004  0.02674274  0.98902853  1
  O  O115  1  0.00778838  0.45484168  0.81642656  1
  H  H116  1  0.36043173  0.06141080  0.89382588  1
  O  O117  1  0.34193383  0.04282583  0.82200415  1
  C  C118  1  0.44039393  0.03562763  0.76851133  1
  C  C119  1  0.04932376  0.49710022  0.78684907  1
  C  C120  1  0.25182491  0.02578003  0.89148048  1
  C  C121  1  0.16550186  0.00180767  0.95395040  1
  H  H122  1  0.38564317  0.49211310  0.98298478  1
  H  H123  1  0.39693021  0.13905945  0.99196855  1
  C  C124  1  0.24789769  0.70139629  0.01239394  1
  C  C125  1  0.44256570  0.94155313  0.24229695  1
  H  H126  1  0.06354609  0.52067246  0.03007354  1
  O  O127  1  0.31919496  0.74929422  0.13961320  1
  C  C128  1  0.11461895  0.56830696  0.02438340  1
  C  C129  1  0.39345948  0.88508523  0.21339082  1
  H  H130  1  0.26184392  0.67014061  0.08479377  1
  O  O131  1  0.41759498  0.74334169  0.10104281  1
  C  C132  1  0.22534633  0.65987920  0.05612000  1
  O  O133  1  0.17762466  0.59576811  0.14101386  1
  O  O134  1  0.30943741  0.75709306  0.00448599  1
  O  O135  1  0.43219607  0.55879446  0.18522272  1
  H  H136  1  0.13263749  0.85114802  0.13357473  1
  H  H137  1  0.43890810  0.84459031  0.01744315  1
  C  C138  1  0.38187620  0.78258924  0.13442641  1
  C  C139  1  0.42381105  0.85337669  0.17123155  1
  C  C140  1  0.15960041  0.59721826  0.06059841  1
  C  C141  1  0.13925267  0.55817561  0.10861874  1
  Zn  Zn142  1  0.48070800  0.56152754  0.11485022  1
  C  C143  1  0.03862897  0.95008197  0.19079951  1
  H  H144  1  0.19126001  0.90551242  0.03664934  1
  Zn  Zn145  1  0.28612607  0.55004152  0.15502697  1
  H  H146  1  0.33692565  0.85817243  0.22331823  1
  C  C147  1  0.12809825  0.96003181  0.12568514  1
  C  C148  1  0.49094515  0.88055164  0.15752347  1
  C  C149  1  0.22098029  0.97088124  0.05968481  1
  H  H150  1  0.06935981  0.87964353  0.01062119  1
  C  C151  1  0.01074041  0.98091646  0.23414552  1
  H  H152  1  0.02072977  0.85252894  0.12710838  1
  H  H153  1  0.08140626  0.98828133  0.10382295  1
  C  C154  1  0.39961762  0.50845438  0.21787548  1
  H  H155  1  0.04356505  0.52788658  0.24587700  1
  H  H156  1  0.30854617  0.99064988  0.01426207  1
  O  O157  1  0.10532373  0.98193640  0.17875246  1
  C  C158  1  0.46887646  0.63442847  0.38474155  1
  H  H159  1  0.44638677  0.58674371  0.35239216  1
  H  H160  1  0.32231343  0.53573376  0.47890978  1
  C  C161  1  0.32340975  0.88708946  0.47973758  1
  H  H162  1  0.25254699  0.79917681  0.43665817  1
  C  C163  1  0.36270440  0.91880845  0.43712870  1
  O  O164  1  0.33426390  0.90985100  0.39785985  1
  H  H165  1  0.35165449  0.66814693  0.33815586  1
  C  C166  1  0.25755668  0.82863983  0.47230840  1
  H  H167  1  0.06370316  0.68418914  0.35994057  1
  C  C168  1  0.41634688  0.65827229  0.41876512  1
  H  H169  1  0.16499241  0.68771723  0.43010349  1
  C  C170  1  0.25540600  0.55425616  0.35480607  1
  C  C171  1  0.04923602  0.67943470  0.43424837  1
  C  C172  1  0.34267927  0.61122487  0.41092708  1
  O  O173  1  0.42461618  0.95855634  0.44134236  1
  C  C174  1  0.11985628  0.72937799  0.45014695  1
  C  C175  1  0.02633281  0.66816550  0.38899386  1
  H  H176  1  0.12498064  0.83717590  0.44700328  1
  C  C177  1  0.43785413  0.69374590  0.46532134  1
  C  C178  1  0.31906213  0.61881349  0.36325154  1
  O  O179  1  0.35187836  0.95512965  0.29966656  1
  C  C180  1  0.00685862  0.66437196  0.47556322  1
  C  C181  1  0.30210319  0.54562742  0.44503509  1
  O  O182  1  0.09973062  0.99730077  0.38610095  1
  H  H183  1  0.39889570  0.72913006  0.49288664  1
  H  H184  1  0.23238072  0.55647893  0.32038664  1
  C  C185  1  0.41366736  0.97727085  0.28967293  1
  C  C186  1  0.02962967  0.63978246  0.67081668  1
  H  H187  1  0.34603529  0.62164872  0.62564972  1
  C  C188  1  0.23712288  0.53083925  0.55680869  1
  C  C189  1  0.20946887  0.80040242  0.50868241  1
  H  H190  1  0.20617267  0.79285364  0.58335188  1
  O  O191  1  0.13517047  0.74638797  0.64213000  1
  C  C192  1  0.47920224  0.56882656  0.65008643  1
  H  H193  1  0.46459340  0.59743975  0.61365494  1
  C  C194  1  0.34726525  0.92133619  0.52442967  1
  C  C195  1  0.06928601  0.71739773  0.63592537  1
  Zn  Zn196  1  0.16387208  0.94323097  0.64380110  1
  H  H197  1  0.03178096  0.67963563  0.51028721  1
  C  C198  1  0.30257610  0.88575472  0.55923113  1
  C  C199  1  0.23672192  0.82646281  0.55277566  1
  H  H200  1  0.26143257  0.60235608  0.53417589  1
  O  O201  1  0.00824500  0.93652555  0.68777307  1
  C  C202  1  0.06059569  0.59586836  0.71089921  1
  H  H203  1  0.11106928  0.63155732  0.72419631  1
  C  C204  1  0.31956778  0.91910560  0.60932828  1
  O  O205  1  0.03309632  0.75575765  0.60356783  1
  Zn  Zn206  1  0.48271727  0.93801571  0.61392346  1
  C  C207  1  0.01595142  0.52811465  0.74060661  1
  O  O208  1  0.27046309  0.90437185  0.63814536  1
  C  C209  1  0.33959996  0.51788398  0.61699876  1
  H  H210  1  0.14325202  0.52186149  0.51404291  1
  O  O211  1  0.14622663  0.74772717  0.50291921  1
  C  C212  1  0.04759941  0.99585223  0.71457372  1
  H  H213  1  0.39762611  0.96814343  0.52798077  1
  O  O214  1  0.37486695  0.98472751  0.61759238  1
  H  H215  1  0.40677826  0.99238078  0.73998660  1
  O  O216  1  0.02908157  0.52778565  0.94936075  1
  C  C217  1  0.45258507  0.85671501  0.98057438  1
  C  C218  1  0.33060095  0.78130602  0.95661879  1
  C  C219  1  0.12087942  0.93646690  0.92308162  1
  C  C220  1  0.13841264  0.60097428  0.98017897  1
  H  H221  1  0.21854213  0.69817198  0.94244959  1
  C  C222  1  0.20064147  0.67201820  0.97642401  1
  C  C223  1  0.04729194  0.89978066  0.93561304  1
  C  C224  1  0.42570316  0.83206997  0.89646852  1
  C  C225  1  0.40649734  0.82436087  0.94405313  1
  H  H226  1  0.22413353  0.94798226  0.82549482  1
  H  H227  1  0.10878668  0.84854588  0.85465136  1
  C  C228  1  0.09042885  0.56534276  0.94123170  1
  H  H229  1  0.29385058  0.86165597  0.94473029  1
  H  H230  1  0.31510533  0.68885716  0.93696630  1
  C  C231  1  0.20625097  0.95654751  0.86156864  1
  H  H232  1  0.38746163  0.81554540  0.86875478  1
  O  O233  1  0.11391999  0.58613667  0.90044485  1
  C  C234  1  0.14323976  0.90389057  0.87581431  1
  H  H235  1  0.01269791  0.92395766  0.86442085  1
  C  C236  1  0.02887027  0.86995924  0.98285789  1
  O  O237  1  0.11382183  0.51814384  0.79258310  1
  O  O238  1  0.36965164  0.51997717  0.89747945  1
  C  C239  1  0.49046059  0.88280699  0.88497878  1
  C  C240  1  0.90769944  0.09788865  0.07495307  1
  C  C241  1  0.87029143  0.40085458  0.06295208  1
  O  O242  1  0.84001210  0.39309991  0.10185333  1
  O  O243  1  0.84631151  0.46132610  0.20961958  1
  H  H244  1  0.55814199  0.18170958  0.13319985  1
  C  C245  1  0.83303181  0.06184599  0.08616054  1
  H  H246  1  0.75093262  0.26926307  0.06274984  1
  C  C247  1  0.73080759  0.06296393  0.13894181  1
  C  C248  1  0.93073438  0.10142109  0.02790274  1
  C  C249  1  0.55265435  0.16317209  0.05687332  1
  H  H250  1  0.64145018  0.30407680  0.05898228  1
  C  C251  1  0.76328362  0.30256707  0.02672390  1
  H  H252  1  0.92844663  0.13988100  0.15115614  1
  C  C253  1  0.82454877  0.37539653  0.02201637  1
  C  C254  1  0.62905335  0.20300201  0.04886068  1
  C  C255  1  0.80039431  0.10022444  0.12903451  1
  C  C256  1  0.94850629  0.13105075  0.11476001  1
  H  H257  1  0.66728844  0.14297951  0.06751159  1
  H  H258  1  0.82742143  0.16264907  0.15347690  1
  C  C259  1  0.52331314  0.15142006  0.10317309  1
  O  O260  1  0.93267689  0.44077080  0.05795622  1
  H  H261  1  0.70652096  0.08255423  0.17343352  1
  C  C262  1  0.50622078  0.17080691  0.01792446  1
  O  O263  1  0.58230657  0.47259914  0.11375087  1
  C  C264  1  0.99889919  0.14444612  0.02011428  1
  C  C265  1  0.90974194  0.48502440  0.21944570  1
  Zn  Zn266  1  0.98470589  0.03115506  0.38956568  1
  C  C267  1  0.94215294  0.45066024  0.26628068  1
  O  O268  1  0.80829927  0.24339101  0.49688297  1
  O  O269  1  0.83512818  0.25677146  0.37020955  1
  H  H270  1  0.63118667  0.32984620  0.36363006  1
  C  C271  1  0.89965691  0.39809302  0.30023840  1
  C  C272  1  0.61236579  0.06388484  0.47529956  1
  C  C273  1  0.89902503  0.28422616  0.37530805  1
  C  C274  1  0.65969512  0.09303091  0.44011635  1
  H  H275  1  0.84508648  0.37416690  0.29982050  1
  C  C276  1  0.72248630  0.15630567  0.44857799  1
  C  C277  1  0.74595281  0.18878986  0.49296904  1
  H  H278  1  0.76056002  0.18290826  0.41945697  1
  O  O279  1  0.68645221  0.06586133  0.36038710  1
  C  C280  1  0.50266943  0.37383276  0.34077241  1
  H  H281  1  0.52544577  0.33903820  0.37343376  1
  O  O282  1  0.95820192  0.02965449  0.31863531  1
  C  C283  1  0.63588243  0.43676975  0.36316297  1
  O  O284  1  0.93430323  0.22430855  0.40537634  1
  C  C285  1  0.93924979  0.35464088  0.33878904  1
  C  C286  1  0.64449368  0.03852366  0.39217121  1
  O  O287  1  0.60631388  0.49212454  0.32037517  1
  H  H288  1  0.69559250  0.38873256  0.45136284  1
  Zn  Zn289  1  0.79993219  0.06364740  0.35889293  1
  C  C290  1  0.72904456  0.44725947  0.42686373  1
  C  C291  1  0.53876922  0.45541503  0.31060348  1
  H  H292  1  0.94046101  0.27641506  0.48097405  1
  C  C293  1  0.55265260  0.40648220  0.49345888  1
  H  H294  1  0.82246498  0.44732509  0.47227649  1
  H  H295  1  0.59794486  0.42481939  0.47035963  1
  H  H296  1  0.59280806  0.46749806  0.38570671  1
  C  C297  1  0.79762469  0.48553290  0.44022823  1
  C  C298  1  0.70363497  0.49054936  0.38304079  1
  C  C299  1  0.50469137  0.49757150  0.27098085  1
  H  H300  1  0.56191195  0.01018722  0.47129743  1
  H  H301  1  0.54788255  0.01182049  0.25583599  1
  H  H302  1  0.71339544  0.18550388  0.56521686  1
  C  C303  1  0.69787236  0.16388059  0.52841589  1
  C  C304  1  0.95764973  0.30902942  0.51435946  1
  C  C305  1  0.70991704  0.44287390  0.63103133  1
  H  H306  1  0.89758070  0.33478473  0.63031978  1
  H  H307  1  0.60532250  0.35683557  0.63138610  1
  C  C308  1  0.63262408  0.42927111  0.56397566  1
  O  O309  1  0.52960747  0.02398365  0.55139526  1
  C  C310  1  0.58974892  0.07135416  0.56017612  1
  O  O311  1  0.61231038  0.08606690  0.60098448  1
  H  H312  1  0.82966893  0.16736667  0.55769439  1
  C  C313  1  0.83589893  0.26887731  0.54901521  1
  C  C314  1  0.56354693  0.39167382  0.54148531  1
  C  C315  1  0.63372764  0.10796398  0.51888385  1
  C  C316  1  0.91244179  0.30316924  0.55353161  1
  H  H317  1  0.80204869  0.32813524  0.57045693  1
  C  C318  1  0.93458355  0.33681419  0.59972210  1
  H  H319  1  0.71911371  0.44097813  0.66971077  1
  C  C320  1  0.64707074  0.40300563  0.61085764  1
  H  H321  1  0.51088617  0.32756289  0.60373742  1
  O  O322  1  0.60694508  0.03375456  0.70364063  1
  O  O323  1  0.87675455  0.02401860  0.61535413  1
  C  C324  1  0.50443846  0.34778112  0.56670845  1
  C  C325  1  0.54312066  0.01243502  0.71285336  1
  C  C326  1  0.82554877  0.06168421  0.87469186  1
  H  H327  1  0.89337564  0.46986492  0.97403427  1
  H  H328  1  0.93838981  0.15065292  0.87405280  1
  C  C329  1  0.55740283  0.11550568  0.78794491  1
  H  H330  1  0.53229418  0.17866212  0.98278905  1
  H  H331  1  0.91403477  0.44542652  0.75211668  1
  C  C332  1  0.73258530  0.02663570  0.94193196  1
  C  C333  1  0.73310667  0.33331893  0.94624549  1
  H  H334  1  0.76693183  0.04806249  0.97100526  1
  O  O335  1  0.65264571  0.23008972  0.99840855  1
  O  O336  1  0.62586286  0.26367201  0.85441607  1
  C  C337  1  0.79656109  0.39221589  0.94116503  1
  C  C338  1  0.84498544  0.41112539  0.97783684  1
  H  H339  1  0.69800896  0.32158795  0.91626067  1
  H  H340  1  0.82898208  0.16209994  0.86539034  1
  C  C341  1  0.56359081  0.23435418  0.86344893  1
  H  H342  1  0.89427091  0.08284342  0.99898866  1
  C  C343  1  0.96184566  0.11238290  0.84215244  1
  C  C344  1  0.52459593  0.15712794  0.82897917  1
  Zn  Zn345  1  0.66203450  0.46920259  0.85397649  1
  H  H346  1  0.61296457  0.13259430  0.77954062  1
  C  C347  1  0.81333423  0.43976904  0.89191137  1
  O  O348  1  0.53258203  0.27754051  0.89903756  1
  C  C349  1  0.71527241  0.28823643  0.99044205  1
  O  O350  1  0.77076156  0.42773073  0.85861898  1
  Zn  Zn351  1  0.98117884  0.43950799  0.88991020  1
  C  C352  1  0.51213168  0.05414141  0.75789786  1
  C  C353  1  0.91764912  0.03735606  0.81412186  1
  H  H354  1  0.87080374  0.03660385  0.89706481  1
  C  C355  1  0.70541020  0.00524371  0.85821185  1
  O  O356  1  0.87026398  0.49461153  0.88646121  1
  O  O357  1  0.85168141  0.00830449  0.82435270  1
  C  C358  1  0.95111186  0.00243468  0.77197748  1
  C  C359  1  0.75462867  0.03076798  0.89463685  1
  C  C360  1  0.54097389  0.49910338  0.78662338  1
  C  C361  1  0.88477338  0.77160026  0.13723480  1
  H  H362  1  0.84418229  0.84987359  0.22312393  1
  C  C363  1  0.51221138  0.96197560  0.23060427  1
  C  C364  1  0.99419712  0.88214491  0.16031973  1
  Zn  Zn365  1  0.79533971  0.53408684  0.15097402  1
  C  C366  1  0.75004010  0.67791814  0.01149413  1
  H  H367  1  0.50575369  0.86362943  0.12298613  1
  C  C368  1  0.71997055  0.63267676  0.05334740  1
  H  H369  1  0.75581677  0.64940631  0.08187393  1
  C  C370  1  0.60664413  0.56775455  0.02273515  1
  H  H371  1  0.61574553  0.83204760  0.11891746  1
  C  C372  1  0.89709941  0.87944356  0.21432843  1
  C  C373  1  0.72840592  0.94369597  0.06405149  1
  C  C374  1  0.64027828  0.52207379  0.10727982  1
  C  C375  1  0.65431818  0.57321070  0.05971671  1
  C  C376  1  0.92599950  0.84726146  0.17214916  1
  O  O377  1  0.82265054  0.73589433  0.14838961  1
  O  O378  1  0.91813192  0.72048913  0.10645302  1
  Zn  Zn379  1  0.97127139  0.53459664  0.11959709  1
  O  O380  1  0.68284561  0.53300533  0.13976493  1
  O  O381  1  0.95044246  0.53356071  0.19047765  1
  H  H382  1  0.70780751  0.86662756  0.04327045  1
  H  H383  1  0.93835443  0.81390327  0.02478238  1
  C  C384  1  0.54163466  0.94263534  0.18650853  1
  C  C385  1  0.94116032  0.94481949  0.24465556  1
  C  C386  1  0.62399835  0.93958473  0.12168119  1
  O  O387  1  0.81330885  0.72732623  0.00728751  1
  H  H388  1  0.55551667  0.51879279  0.02319117  1
  H  H389  1  0.53175969  0.55843817  0.24549067  1
  H  H390  1  0.58471886  0.98093323  0.09805639  1
  C  C391  1  0.69684133  0.98675918  0.10566589  1
  C  C392  1  0.79632159  0.98550280  0.05386398  1
  H  H393  1  0.82516113  0.95211350  0.02388254  1
  O  O394  1  0.60497715  0.97908847  0.17112562  1
  H  H395  1  0.67240746  0.67272775  0.43109766  1
  C  C396  1  0.82948343  0.90287251  0.48876015  1
  C  C397  1  0.91182987  0.60666489  0.42014524  1
  O  O398  1  0.85281136  0.92300011  0.40603728  1
  H  H399  1  0.93964461  0.61922649  0.34500993  1
  H  H400  1  0.64339147  0.83645524  0.44355894  1
  H  H401  1  0.75835053  0.81722761  0.44334254  1
  H  H402  1  0.58482516  0.67035146  0.36827037  1
  C  C403  1  0.87737717  0.93112703  0.44683778  1
  C  C404  1  0.83691187  0.56977588  0.40974689  1
  C  C405  1  0.55963129  0.70282632  0.43879028  1
  C  C406  1  0.63434708  0.73032250  0.45267952  1
  C  C407  1  0.76496911  0.84447769  0.47891083  1
  C  C408  1  0.54151113  0.66764122  0.39268348  1
  H  H409  1  0.71702423  0.60504721  0.32103819  1
  C  C410  1  0.93853882  0.62964872  0.46743843  1
  H  H411  1  0.83384381  0.70269651  0.34856703  1
  C  C412  1  0.95514024  0.63100408  0.38152741  1
  C  C413  1  0.80460674  0.63283736  0.37012161  1
  C  C414  1  0.74038607  0.58395550  0.35515093  1
  O  O415  1  0.58824118  0.97678302  0.38565677  1
  O  O416  1  0.94083962  0.95392997  0.45339825  1
  C  C417  1  0.50769693  0.71541887  0.47575601  1
  C  C418  1  0.91501771  0.98314418  0.29146617  1
  O  O419  1  0.85244360  0.96697369  0.30206661  1
  H  H420  1  0.90207364  0.61469732  0.49704374  1
  C  C421  1  0.54224596  0.62110723  0.66626349  1
  H  H422  1  0.77414597  0.61023744  0.53662260  1
  H  H423  1  0.82485556  0.65447425  0.63238714  1
  O  O424  1  0.85128708  0.50184110  0.67299109  1
  C  C425  1  0.85034167  0.94872597  0.53082228  1
  C  C426  1  0.51773970  0.52176181  0.73709952  1
  Zn  Zn427  1  0.97625189  0.94130208  0.61349647  1
  C  C428  1  0.80013794  0.92260414  0.56609098  1
  O  O429  1  0.78163501  0.94801215  0.64932831  1
  H  H430  1  0.70519470  0.82901678  0.58562694  1
  C  C431  1  0.56657457  0.58822515  0.71011388  1
  H  H432  1  0.66302128  0.53335460  0.50237764  1
  C  C433  1  0.73739900  0.85645507  0.55704601  1
  O  O434  1  0.63636716  0.75749034  0.64259437  1
  Zn  Zn435  1  0.66191609  0.95633208  0.64762268  1
  C  C436  1  0.57734035  0.71341223  0.63326225  1
  C  C437  1  0.95966885  0.60595594  0.65615799  1
  H  H438  1  0.93904670  0.63745879  0.62178538  1
  C  C439  1  0.83081583  0.54807831  0.62290584  1
  C  C440  1  0.91775568  0.53133135  0.68440269  1
  O  O441  1  0.54460165  0.75203733  0.59753503  1
  C  C442  1  0.74220381  0.54468216  0.55651853  1
  C  C443  1  0.71324071  0.81917829  0.51294736  1
  C  C444  1  0.81660210  0.97113311  0.61350752  1
  H  H445  1  0.61750578  0.63028211  0.72221283  1
  H  H446  1  0.90432443  0.99798032  0.53490143  1
  H  H447  1  0.52531714  0.74490765  0.51198761  1
  O  O448  1  0.65302187  0.76378723  0.50568254  1
  C  C449  1  0.67773103  0.50697156  0.53698638  1
  H  H450  1  0.87940926  0.53244110  0.60302234  1
  O  O451  1  0.50064687  0.95655449  0.68603234  1
  C  C452  1  0.75989417  0.50583445  0.60188874  1
  C  C453  1  0.94693189  0.50124303  0.72769009  1
  H  H454  1  0.91985527  0.95018669  0.74869038  1
  C  C455  1  0.91110035  0.81542877  0.95213299  1
  C  C456  1  0.83643935  0.76345434  0.95686641  1
  C  C457  1  0.95847792  0.82769396  0.99065275  1
  H  H458  1  0.72770923  0.99468697  0.82275641  1
  C  C459  1  0.61454520  0.96626154  0.91670529  1
  H  H460  1  0.71843000  0.69378171  0.94033811  1
  C  C461  1  0.59216461  0.59518669  0.93898166  1
  C  C462  1  0.70177928  0.66482624  0.97502623  1
  C  C463  1  0.63463180  0.61683175  0.98196143  1
  C  C464  1  0.92824875  0.85166300  0.90610779  1
  O  O465  1  0.53099757  0.55561403  0.94664275  1
  C  C466  1  0.53950948  0.91814952  0.92125525  1
  H  H467  1  0.89096431  0.84567158  0.87732442  1
  O  O468  1  0.61657671  0.61133166  0.89784880  1
  C  C469  1  0.63570821  0.97750315  0.86957754  1
  C  C470  1  0.51908516  0.90420869  0.96831706  1
  H  H471  1  0.60039841  0.95499106  0.84212397  1
  H  H472  1  0.82970582  0.67985304  0.93506891  1
  H  H473  1  0.79754025  0.83389116  0.94416155  1
  O  O474  1  0.60091243  0.53806273  0.79810427  1
  H  H475  1  0.50078059  0.89081275  0.84858298  1
  C  C476  1  0.99678120  0.89380153  0.89899107  1
  H  H477  1  0.64625582  0.98114305  0.98842791  1
  C  C478  1  0.66543900  0.99235894  0.95354915  1
  H  H479  1  0.55486855  0.94359842  0.99359095  1
