# generated using pymatgen
data_CuH8(C4O)4
_symmetry_space_group_name_H-M   'P 1'
_cell_length_a   17.95986070
_cell_length_b   16.48494512
_cell_length_c   28.72432002
_cell_angle_alpha   90.00000000
_cell_angle_beta   90.00000000
_cell_angle_gamma   90.00000000
_symmetry_Int_Tables_number   1
_chemical_formula_structural   CuH8(C4O)4
_chemical_formula_sum   'Cu24 H192 C384 O96'
_cell_volume   8504.33238590
_cell_formula_units_Z   24
loop_
 _symmetry_equiv_pos_site_id
 _symmetry_equiv_pos_as_xyz
  1  'x, y, z'
loop_
 _atom_site_type_symbol
 _atom_site_label
 _atom_site_symmetry_multiplicity
 _atom_site_fract_x
 _atom_site_fract_y
 _atom_site_fract_z
 _atom_site_occupancy
  O  O0  1  0.24487420  0.12072995  0.20624283  1
  H  H1  1  0.34781185  0.39706887  0.06735806  1
  Cu  Cu2  1  0.49464091  0.35883425  0.22484912  1
  C  C3  1  0.44756382  0.44644554  0.10308624  1
  C  C4  1  0.19711662  0.45704803  0.10404224  1
  C  C5  1  0.24525228  0.05933412  0.08551604  1
  C  C6  1  0.13996205  0.47752326  0.07204557  1
  Cu  Cu7  1  0.31793955  0.28042453  0.16625612  1
  O  O8  1  0.33924274  0.24662260  0.22955506  1
  H  H9  1  0.26910505  0.11731712  0.06920737  1
  O  O10  1  0.06256663  0.17834572  0.14548436  1
  C  C11  1  0.38722440  0.44865243  0.07123914  1
  O  O12  1  0.15737487  0.32678539  0.12417688  1
  H  H13  1  0.10288830  0.42595450  0.06292306  1
  C  C14  1  0.23742372  0.05255428  0.13391457  1
  C  C15  1  0.20342801  0.38014174  0.12981972  1
  C  C16  1  0.04841148  0.03579356  0.08811963  1
  H  H17  1  0.10287257  0.06932983  0.08679460  1
  C  C18  1  0.44733063  0.36965809  0.13000592  1
  C  C19  1  0.26333094  0.11739545  0.16647074  1
  O  O20  1  0.30192077  0.17600435  0.14668162  1
  Cu  Cu21  1  0.08784747  0.28257195  0.17352179  1
  O  O22  1  0.39533155  0.31846800  0.12505334  1
  O  O23  1  0.25633706  0.36826197  0.15960163  1
  O  O24  1  0.07826293  0.27410858  0.24053673  1
  O  O25  1  0.49930150  0.35645863  0.15865961  1
  C  C26  1  0.00271663  0.13916786  0.14485939  1
  O  O27  1  0.01058931  0.36597807  0.16438532  1
  H  H28  1  0.22604311  0.00393737  0.01994481  1
  C  C29  1  0.07465650  0.37572098  0.39979776  1
  C  C30  1  0.31523631  0.21798793  0.40214374  1
  C  C31  1  0.29148243  0.16354940  0.36589413  1
  H  H32  1  0.43585081  0.39080432  0.40915112  1
  C  C33  1  0.31027841  0.18553440  0.32017604  1
  C  C34  1  0.05582330  0.14242938  0.45325038  1
  C  C35  1  0.46859072  0.43217498  0.43308532  1
  C  C36  1  0.39288742  0.29729670  0.34883187  1
  C  C37  1  0.26013254  0.37791442  0.40030958  1
  C  C38  1  0.36813213  0.27930077  0.39300423  1
  H  H39  1  0.39092449  0.31533771  0.42195588  1
  C  C40  1  0.03423364  0.30346870  0.41546836  1
  H  H41  1  0.43281793  0.34392424  0.33841846  1
  C  C42  1  0.34233163  0.04377593  0.42484398  1
  C  C43  1  0.28265851  0.44328464  0.37476520  1
  C  C44  1  0.11242964  0.15721372  0.42064753  1
  C  C45  1  0.35417949  0.25692763  0.31290480  1
  O  O46  1  0.40378929  0.34632238  0.25685050  1
  H  H47  1  0.29191430  0.15711038  0.28857910  1
  C  C48  1  0.01753579  0.24391049  0.38025069  1
  C  C49  1  0.28428530  0.22254837  0.45178520  1
  C  C50  1  0.27307390  0.14641416  0.47342128  1
  H  H51  1  0.23997439  0.32163696  0.38268251  1
  C  C52  1  0.36506169  0.28225113  0.26430494  1
  H  H53  1  0.27798118  0.44421453  0.33701059  1
  H  H54  1  0.02297321  0.21223548  0.30982030  1
  H  H55  1  0.09286197  0.42020118  0.42517724  1
  C  C56  1  0.27676210  0.06358294  0.45112061  1
  C  C57  1  0.03677160  0.25851527  0.33389937  1
  H  H58  1  0.38396350  0.09189536  0.42382332  1
  H  H59  1  0.13433976  0.21962907  0.41881151  1
  H  H60  1  0.25472316  0.11093305  0.37551048  1
  C  C61  1  0.27289395  0.45106775  0.47449100  1
  C  C62  1  0.09138427  0.38509839  0.35340629  1
  C  C63  1  0.26290112  0.37732036  0.45082287  1
  C  C64  1  0.09741295  0.33607706  0.26855453  1
  C  C65  1  0.07551372  0.32676296  0.31954582  1
  H  H66  1  0.15962290  0.12146936  0.35397488  1
  H  H67  1  0.11795271  0.44062550  0.34138727  1
  C  C68  1  0.12614089  0.10284388  0.38396988  1
  C  C69  1  0.02471053  0.20671099  0.48567202  1
  C  C70  1  0.25629703  0.29562915  0.47297055  1
  C  C71  1  0.09488635  0.02614813  0.38542941  1
  H  H72  1  0.12165537  0.38492913  0.49102017  1
  O  O73  1  0.12568260  0.39408011  0.25222921  1
  C  C74  1  0.21691769  0.00461684  0.45381460  1
  C  C75  1  0.01728181  0.28920438  0.46649682  1
  H  H76  1  0.16234419  0.01361770  0.47092262  1
  H  H77  1  0.47220811  0.00232437  0.48153850  1
  C  C78  1  0.02731632  0.06053153  0.45800430  1
  C  C79  1  0.05209844  0.00509404  0.42403055  1
  C  C80  1  0.23319716  0.21921140  0.69734899  1
  H  H81  1  0.26493915  0.45612824  0.51144291  1
  C  C82  1  0.23428573  0.21552793  0.54663652  1
  C  C83  1  0.44160378  0.04689138  0.58223437  1
  C  C84  1  0.46964896  0.37825836  0.56303267  1
  C  C85  1  0.15136571  0.41107422  0.52185726  1
  H  H86  1  0.34335056  0.16798540  0.68888302  1
  H  H87  1  0.39688330  0.08846760  0.59133083  1
  C  C88  1  0.20851723  0.36460692  0.54391415  1
  H  H89  1  0.09188610  0.40218534  0.61008404  1
  C  C90  1  0.23350205  0.22500366  0.59953165  1
  C  C91  1  0.16915871  0.25319351  0.62373264  1
  H  H92  1  0.11869322  0.27058937  0.60505780  1
  C  C93  1  0.47559935  0.20449863  0.60682223  1
  H  H94  1  0.06076555  0.13897882  0.61637638  1
  C  C95  1  0.22821957  0.47208172  0.60199030  1
  H  H96  1  0.25713317  0.49359531  0.63374855  1
  H  H97  1  0.39910426  0.30871153  0.60924488  1
  C  C98  1  0.29680188  0.19751860  0.62344582  1
  H  H99  1  0.34470516  0.17599438  0.60147809  1
  H  H100  1  0.06364212  0.11470269  0.70292660  1
  C  C101  1  0.17138560  0.24328491  0.67178422  1
  C  C102  1  0.03172787  0.18081281  0.64082699  1
  C  C103  1  0.29694460  0.19433276  0.67104003  1
  C  C104  1  0.43767136  0.26972819  0.67746557  1
  H  H105  1  0.27338678  0.35354587  0.60293140  1
  H  H106  1  0.17109045  0.11211065  0.59906322  1
  C  C107  1  0.03667291  0.16868325  0.68802033  1
  C  C108  1  0.23976989  0.39574485  0.58510678  1
  C  C109  1  0.21050035  0.06187010  0.59355487  1
  H  H110  1  0.11910948  0.09004348  0.52970838  1
  H  H111  1  0.12601194  0.26179546  0.69537954  1
  C  C112  1  0.25343200  0.06821336  0.55146078  1
  H  H113  1  0.40827718  0.31381699  0.70078338  1
  H  H114  1  0.38084836  0.40656264  0.51273263  1
  C  C115  1  0.00835311  0.19574802  0.53455604  1
  C  C116  1  0.25151248  0.14351776  0.52255805  1
  C  C117  1  0.23219838  0.28751737  0.51920126  1
  C  C118  1  0.41425569  0.42951369  0.54227140  1
  C  C119  1  0.07161771  0.06419212  0.54762438  1
  C  C120  1  0.43154549  0.26640756  0.62932066  1
  C  C121  1  0.03772170  0.43592911  0.60941752  1
  C  C122  1  0.47853459  0.20769940  0.69950136  1
  C  C123  1  0.00147721  0.11105702  0.55243495  1
  C  C124  1  0.23770831  0.21488118  0.74848462  1
  C  C125  1  0.14317943  0.48995046  0.53510579  1
  C  C126  1  0.00388643  0.22403309  0.71917205  1
  C  C127  1  0.48254868  0.47561204  0.62896012  1
  C  C128  1  0.48288157  0.21871822  0.55593168  1
  C  C129  1  0.49485249  0.06529175  0.54727735  1
  C  C130  1  0.49732971  0.14821166  0.52717582  1
  C  C131  1  0.48749690  0.30096106  0.53823552  1
  C  C132  1  0.30382603  0.00368610  0.53928990  1
  H  H133  1  0.00627694  0.49755980  0.53840094  1
  H  H134  1  0.34526633  0.00799299  0.51047532  1
  H  H135  1  0.32056210  0.48762281  0.87872629  1
  O  O136  1  0.22240058  0.34759327  0.92055467  1
  C  C137  1  0.08500953  0.05842250  0.94720342  1
  C  C138  1  0.48590346  0.46362622  0.93549492  1
  C  C139  1  0.14905544  0.15904069  0.89334462  1
  C  C140  1  0.19044992  0.40331048  0.89699353  1
  C  C141  1  0.14862758  0.08594795  0.92190435  1
  C  C142  1  0.39937040  0.05646743  0.93195113  1
  C  C143  1  0.21485376  0.04351799  0.92242304  1
  Cu  Cu144  1  0.27948130  0.26008301  0.89374370  1
  O  O145  1  0.08993699  0.19746813  0.88855944  1
  Cu  Cu146  1  0.08126363  0.30067029  0.85780224  1
  C  C147  1  0.37207713  0.04092129  0.97771220  1
  C  C148  1  0.42486566  0.36677577  0.87982423  1
  O  O149  1  0.15458344  0.38615043  0.86111542  1
  O  O150  1  0.37572996  0.34848598  0.84980949  1
  O  O151  1  0.47484571  0.31523136  0.88979234  1
  O  O152  1  0.17892890  0.22212091  0.77172833  1
  C  C153  1  0.19206786  0.48614083  0.91589527  1
  O  O154  1  0.33864267  0.18296841  0.93006945  1
  C  C155  1  0.38332188  0.13611966  0.91000674  1
  Cu  Cu156  1  0.13779359  0.13096306  0.80341008  1
  O  O157  1  0.41621724  0.15918025  0.87259882  1
  H  H158  1  0.26320009  0.06860031  0.90611874  1
  O  O159  1  0.20822844  0.18703548  0.87520289  1
  H  H160  1  0.06996611  0.47246969  0.93904108  1
  O  O161  1  0.44393946  0.27477817  0.77144370  1
  Cu  Cu162  1  0.35482793  0.26304857  0.80838968  1
  O  O163  1  0.03802954  0.14671477  0.78380550  1
  C  C164  1  0.42663693  0.44209535  0.90629877  1
  H  H165  1  0.03060145  0.09158703  0.94229479  1
  O  O166  1  0.12221028  0.02116149  0.80402917  1
  C  C167  1  0.47617084  0.21538458  0.75191491  1
  H  H168  1  0.46048538  0.00829340  0.87306694  1
  O  O169  1  0.29939017  0.20251071  0.76815753  1
  H  H170  1  0.26572159  0.45081560  0.97346763  1
  C  C171  1  0.00989367  0.21146348  0.76903654  1
  O  O172  1  0.02006911  0.35658084  0.90031894  1
  H  H173  1  0.34182161  0.08968045  0.99933440  1
  H  H174  1  0.08217634  0.94118861  0.04325028  1
  C  C175  1  0.13168421  0.55358505  0.05132351  1
  H  H176  1  0.37663488  0.86633770  0.12440369  1
  H  H177  1  0.34633052  0.52317990  0.01219140  1
  H  H178  1  0.38795078  0.62348231  0.11476747  1
  H  H179  1  0.36327480  0.94566629  0.02699933  1
  C  C180  1  0.24546946  0.74004074  0.20396601  1
  C  C181  1  0.22172614  0.99347463  0.05781932  1
  C  C182  1  0.18595112  0.61362571  0.06253635  1
  H  H183  1  0.29802139  0.63398853  0.09459575  1
  C  C184  1  0.20579809  0.98250496  0.15401489  1
  C  C185  1  0.44841815  0.97253514  0.13331205  1
  C  C186  1  0.17131744  0.72110565  0.19276260  1
  C  C187  1  0.47026224  0.72688834  0.10724587  1
  C  C188  1  0.30363532  0.76351661  0.17215762  1
  H  H189  1  0.20400329  0.97489941  0.19259553  1
  C  C190  1  0.45791817  0.88477893  0.06619711  1
  C  C191  1  0.44638779  0.57325155  0.04509748  1
  H  H192  1  0.09362067  0.70811436  0.13632506  1
  C  C193  1  0.19176292  0.91977420  0.07627911  1
  C  C194  1  0.42464010  0.90312485  0.10961521  1
  C  C195  1  0.43839269  0.66139877  0.18063849  1
  H  H196  1  0.39887644  0.62384695  0.19888345  1
  H  H197  1  0.15816915  0.86501357  0.14082278  1
  H  H198  1  0.08783316  0.86573361  0.19410092  1
  C  C199  1  0.18001716  0.76623848  0.06373430  1
  C  C200  1  0.20351844  0.75604824  0.11419363  1
  C  C201  1  0.14925330  0.72466467  0.14681614  1
  C  C202  1  0.18260117  0.91858454  0.12518491  1
  C  C203  1  0.45388799  0.72934482  0.05540302  1
  C  C204  1  0.02626025  0.82540870  0.13360873  1
  C  C205  1  0.17406198  0.84852804  0.04442210  1
  C  C206  1  0.42684707  0.66847989  0.13290469  1
  C  C207  1  0.18286233  0.69425101  0.03551470  1
  C  C208  1  0.28041609  0.77339501  0.12625607  1
  H  H209  1  0.32207496  0.79516583  0.10053312  1
  H  H210  1  0.04565149  0.63536806  0.11321205  1
  C  C211  1  0.24973775  0.59472664  0.09163315  1
  H  H212  1  0.13142200  0.70443559  0.21950028  1
  C  C213  1  0.49144044  0.70929935  0.20249634  1
  H  H214  1  0.36303417  0.77238824  0.18589344  1
  C  C215  1  0.44309042  0.66135284  0.02596325  1
  H  H216  1  0.26357232  0.59707987  0.00753281  1
  C  C217  1  0.38874591  0.51395722  0.04062030  1
  C  C218  1  0.44798657  0.80925200  0.03600113  1
  H  H219  1  0.08517495  0.56589473  0.03023540  1
  H  H220  1  0.05260929  0.86291097  0.10804864  1
  C  C221  1  0.04268623  0.82463912  0.18144930  1
  C  C222  1  0.00374673  0.51580964  0.11963775  1
  C  C223  1  0.03606673  0.96493150  0.06292109  1
  H  H224  1  0.42428234  0.98232484  0.16870472  1
  C  C225  1  0.00908664  0.76667141  0.21041926  1
  H  H226  1  0.04444626  0.51840478  0.14837184  1
  C  C227  1  0.25152640  0.51831314  0.11175426  1
  H  H228  1  0.29820003  0.50545610  0.13686433  1
  C  C229  1  0.00480760  0.59304423  0.09922500  1
  O  O230  1  0.21679979  0.73286447  0.28510132  1
  O  O231  1  0.33214274  0.75609126  0.26260684  1
  H  H232  1  0.43704783  0.54409225  0.39736376  1
  O  O233  1  0.34007307  0.65244608  0.39931810  1
  O  O234  1  0.45926350  0.65679451  0.27547193  1
  H  H235  1  0.31607485  0.57732271  0.46642144  1
  H  H236  1  0.39983897  0.95142026  0.38495200  1
  Cu  Cu237  1  0.16279365  0.81475854  0.31854831  1
  C  C238  1  0.32561259  0.58880621  0.37851653  1
  Cu  Cu239  1  0.41217678  0.73454133  0.38277651  1
  O  O240  1  0.10413732  0.89139040  0.35315884  1
  C  C241  1  0.46671913  0.51607951  0.42772230  1
  C  C242  1  0.22177095  0.93221425  0.42935386  1
  O  O243  1  0.33532204  0.58664321  0.33425450  1
  C  C244  1  0.30222143  0.51688919  0.44998960  1
  O  O245  1  0.22889663  0.80431748  0.37252348  1
  H  H246  1  0.03526652  0.94023226  0.42482834  1
  C  C247  1  0.28729402  0.91837879  0.40500633  1
  C  C248  1  0.28849790  0.84169288  0.37927255  1
  O  O249  1  0.35167130  0.82060236  0.36214875  1
  Cu  Cu250  1  0.36328683  0.67969329  0.30196371  1
  C  C251  1  0.30380296  0.51407010  0.40114740  1
  C  C252  1  0.04073094  0.76695545  0.25790925  1
  C  C253  1  0.35151071  0.96908380  0.40454513  1
  H  H254  1  0.17419009  0.88707664  0.42949361  1
  O  O255  1  0.08949330  0.81866376  0.26716054  1
  C  C256  1  0.11341743  0.96632358  0.34607491  1
  O  O257  1  0.48568129  0.66751480  0.40173719  1
  C  C258  1  0.49856293  0.70753247  0.25361501  1
  O  O259  1  0.14923219  0.99909439  0.31595186  1
  O  O260  1  0.00775044  0.72328532  0.28803133  1
  C  C261  1  0.26404543  0.74098125  0.25199701  1
  C  C262  1  0.16913924  0.60691785  0.58985757  1
  O  O263  1  0.36420227  0.65012101  0.60084058  1
  O  O264  1  0.08334210  0.84198722  0.61720968  1
  C  C265  1  0.45138350  0.97486940  0.60432656  1
  H  H266  1  0.12996431  0.96111300  0.56712690  1
  H  H267  1  0.34868999  0.53990993  0.55013060  1
  H  H268  1  0.06023336  0.53137980  0.65989251  1
  C  C269  1  0.26973192  0.93459423  0.61104197  1
  C  C270  1  0.28035175  0.86149433  0.63864126  1
  H  H271  1  0.18329442  0.99220927  0.65434611  1
  O  O272  1  0.33068270  0.80955472  0.62710921  1
  O  O273  1  0.12097961  0.65310247  0.57686530  1
  H  H274  1  0.35735762  0.89521286  0.56538302  1
  O  O275  1  0.21479648  0.62710927  0.62460539  1
  C  C276  1  0.02088652  0.96228859  0.60106684  1
  Cu  Cu277  1  0.23795749  0.90165596  0.72787737  1
  C  C278  1  0.41045182  0.60801184  0.62279923  1
  Cu  Cu279  1  0.28471715  0.71059372  0.62513960  1
  O  O280  1  0.23933207  0.85087663  0.67337116  1
  C  C281  1  0.07690729  0.98964097  0.57005586  1
  C  C282  1  0.43125161  0.52652014  0.60554163  1
  C  C283  1  0.31223650  0.94013343  0.57120847  1
  C  C284  1  0.01795108  0.50175106  0.63876507  1
  H  H285  1  0.41472835  0.95718869  0.63261667  1
  O  O286  1  0.44335263  0.63090217  0.65926988  1
  Cu  Cu287  1  0.46354000  0.73977081  0.68516461  1
  O  O288  1  0.37589670  0.74337844  0.72836023  1
  H  H289  1  0.11302865  0.52825905  0.51052247  1
  C  C290  1  0.03142781  0.88186064  0.62726861  1
  C  C291  1  0.18406315  0.52401642  0.57361371  1
  C  C292  1  0.21786809  0.99626012  0.62265653  1
  O  O293  1  0.48559799  0.84373437  0.65923958  1
  C  C294  1  0.39465654  0.50176243  0.56428596  1
  O  O295  1  0.33250096  0.86367414  0.74846726  1
  H  H296  1  0.00749717  0.62937409  0.50551267  1
  C  C297  1  0.35840316  0.84284489  0.84146879  1
  H  H298  1  0.04979234  0.94541837  0.85710619  1
  C  C299  1  0.42666363  0.90321968  0.97047418  1
  C  C300  1  0.37700783  0.78313647  0.80808084  1
  C  C301  1  0.42565192  0.67586780  0.97915454  1
  C  C302  1  0.15099571  0.54495231  0.89085759  1
  C  C303  1  0.36301951  0.79502085  0.75931991  1
  C  C304  1  0.14989526  0.62231984  0.90993383  1
  C  C305  1  0.45800722  0.92230247  0.92606595  1
  C  C306  1  0.08857953  0.98460027  0.96880677  1
  H  H307  1  0.12076098  0.52564029  0.85980541  1
  H  H308  1  0.32135161  0.61619404  0.91888780  1
  C  C309  1  0.15607470  0.89659814  0.84109380  1
  H  H310  1  0.26739230  0.92724825  0.94258371  1
  C  C311  1  0.08892624  0.85123085  0.90541549  1
  C  C312  1  0.00051355  0.57543677  0.96386206  1
  O  O313  1  0.22427030  0.96019404  0.78211925  1
  H  H314  1  0.02637401  0.71957750  0.90462457  1
  C  C315  1  0.16275540  0.78609715  0.96684417  1
  H  H316  1  0.35003372  0.87460616  0.91170945  1
  H  H317  1  0.04360055  0.86221937  0.93094986  1
  C  C318  1  0.18370678  0.63657884  0.95393616  1
  C  C319  1  0.36879258  0.83117617  0.88783167  1
  C  C320  1  0.16768135  0.96166596  0.80843906  1
  C  C321  1  0.48453131  0.53651064  0.95907600  1
  C  C322  1  0.41368435  0.75269150  0.95581375  1
  H  H323  1  0.25063490  0.81729574  0.81646450  1
  C  C324  1  0.20644795  0.82970742  0.84226544  1
  C  C325  1  0.15701222  0.93943751  0.97160990  1
  C  C326  1  0.20604953  0.77590544  0.87994781  1
  H  H327  1  0.25043780  0.72736744  0.88488797  1
  H  H328  1  0.42760417  0.66068474  0.79810650  1
  C  C329  1  0.39881907  0.75743142  0.90518880  1
  C  C330  1  0.23336485  0.57978608  0.97560373  1
  C  C331  1  0.42769195  0.81652576  0.98843891  1
  C  C332  1  0.36730842  0.57185047  0.92473876  1
  C  C333  1  0.08720108  0.89832839  0.86577556  1
  H  H334  1  0.33387716  0.90182695  0.82864745  1
  C  C335  1  0.15226316  0.80116837  0.91510008  1
  H  H336  1  0.04325392  0.95576793  0.98687194  1
  C  C337  1  0.42510231  0.59378419  0.95582540  1
  C  C338  1  0.17516427  0.70696387  0.98572286  1
  C  C339  1  0.41857873  0.69605025  0.87073573  1
  H  H340  1  0.11963674  0.66863446  0.88844479  1
  C  C341  1  0.40768719  0.70773100  0.82337244  1
  C  C342  1  0.21833366  0.96760285  0.94411670  1
  C  C343  1  0.38734678  0.96525039  0.99512966  1
  H  H344  1  0.44030615  0.63778786  0.88261633  1
  C  C345  1  0.16161913  0.85708359  0.99587838  1
  H  H346  1  0.01597851  0.72626287  0.82092213  1
  C  C347  1  0.01374206  0.50253809  0.93954742  1
  C  C348  1  0.44145906  0.99888329  0.90799002  1
  H  H349  1  0.04787783  0.60865175  0.98137015  1
  H  H350  1  0.49365009  0.87882760  0.90730389  1
  C  C351  1  0.37003844  0.50092295  0.90028806  1
  C  C352  1  0.23195281  0.50044035  0.95821693  1
  Cu  Cu353  1  0.87149995  0.24477498  0.15970672  1
  C  C354  1  0.96358436  0.44772201  0.10497969  1
  C  C355  1  0.73478353  0.33606928  0.12785987  1
  O  O356  1  0.94914475  0.16201664  0.17108644  1
  H  H357  1  0.91878466  0.01042842  0.01823916  1
  O  O358  1  0.78951820  0.32637734  0.15260065  1
  C  C359  1  0.91599689  0.03538356  0.11558103  1
  O  O360  1  0.92038031  0.31495484  0.12124942  1
  O  O361  1  0.58558672  0.13338497  0.12079357  1
  O  O362  1  0.82055006  0.18406751  0.20226617  1
  C  C363  1  0.96655705  0.37236747  0.13076670  1
  C  C364  1  0.65828895  0.41908116  0.07245829  1
  H  H365  1  0.88654435  0.41680917  0.04913770  1
  O  O366  1  0.74206841  0.11065738  0.11984871  1
  C  C367  1  0.76931075  0.20067735  0.22965927  1
  O  O368  1  0.70489178  0.20583838  0.21282643  1
  C  C369  1  0.96050204  0.21778896  0.00799756  1
  C  C370  1  0.71932674  0.41218018  0.10289666  1
  O  O371  1  0.78220083  0.14099766  0.04897711  1
  C  C372  1  0.75545266  0.09540383  0.07607111  1
  H  H373  1  0.61792065  0.36796668  0.06904203  1
  O  O374  1  0.68497979  0.28113859  0.12176250  1
  Cu  Cu375  1  0.67499342  0.18062349  0.14918760  1
  C  C376  1  0.53259503  0.09413912  0.14208317  1
  H  H377  1  0.87400195  0.05904933  0.13888742  1
  H  H378  1  0.59335200  0.04267177  0.06332657  1
  C  C379  1  0.77368322  0.47423590  0.10759076  1
  C  C380  1  0.91903024  0.46506387  0.06483938  1
  C  C381  1  0.98993223  0.06769112  0.11633805  1
  C  C382  1  0.64820736  0.48853530  0.04639093  1
  C  C383  1  0.50789792  0.02089033  0.11557895  1
  C  C384  1  0.73927574  0.00816111  0.05938771  1
  H  H385  1  0.54955670  0.49419216  0.13500417  1
  H  H386  1  0.82570038  0.46719195  0.12770043  1
  C  C387  1  0.54607099  0.00251770  0.07429660  1
  O  O388  1  0.51356245  0.11200097  0.18040666  1
  H  H389  1  0.59873291  0.48849710  0.02481130  1
  O  O390  1  0.99052167  0.16417554  0.01670194  1
  C  C391  1  0.61141460  0.10344998  0.42264094  1
  C  C392  1  0.77976572  0.23182451  0.37717582  1
  C  C393  1  0.84576078  0.21275871  0.35204990  1
  C  C394  1  0.55142567  0.29514886  0.31215500  1
  H  H395  1  0.92782547  0.38912184  0.41218148  1
  C  C396  1  0.84523646  0.19511891  0.30475056  1
  C  C397  1  0.88414158  0.01151964  0.39183305  1
  H  H398  1  0.66273402  0.24537425  0.28338534  1
  H  H399  1  0.65965620  0.26727950  0.36868265  1
  C  C400  1  0.71217962  0.24418354  0.35183945  1
  C  C401  1  0.77833131  0.20480381  0.28123345  1
  C  C402  1  0.54779552  0.09384712  0.45213437  1
  H  H403  1  0.59812022  0.41265614  0.33618172  1
  C  C404  1  0.78048970  0.16864261  0.45913716  1
  C  C405  1  0.51399511  0.01539619  0.45449174  1
  C  C406  1  0.71124916  0.23465291  0.30386713  1
  C  C407  1  0.77960540  0.24115718  0.43120010  1
  C  C408  1  0.57228585  0.33792526  0.39283064  1
  C  C409  1  0.69263717  0.45267898  0.43775612  1
  H  H410  1  0.66593220  0.44330546  0.46978652  1
  H  H411  1  0.90864239  0.13963293  0.41331731  1
  C  C412  1  0.75327283  0.01986088  0.44945307  1
  C  C413  1  0.96955285  0.43112599  0.47804165  1
  C  C414  1  0.75741336  0.31763827  0.45137544  1
  C  C415  1  0.99518043  0.35100099  0.49706399  1
  C  C416  1  0.77173788  0.40366330  0.37553366  1
  C  C417  1  0.57524504  0.35394962  0.34674205  1
  H  H418  1  0.63915096  0.16182244  0.42722271  1
  C  C419  1  0.74111840  0.38985602  0.41934859  1
  H  H420  1  0.90165378  0.20742711  0.36977507  1
  H  H421  1  0.70855591  0.02061951  0.47639115  1
  C  C422  1  0.63729348  0.04519052  0.39313458  1
  H  H423  1  0.68474737  0.05781406  0.36986567  1
  H  H424  1  0.99499737  0.18669377  0.39305087  1
  H  H425  1  0.76847914  0.46781601  0.30943416  1
  O  O426  1  0.55624192  0.30642167  0.26795983  1
  C  C427  1  0.93720397  0.44377108  0.43344178  1
  C  C428  1  0.54009793  0.26021649  0.40870499  1
  C  C429  1  0.80183195  0.08804528  0.44091503  1
  H  H430  1  0.58997203  0.38431188  0.41876055  1
  H  H431  1  0.81162020  0.35582580  0.36246841  1
  C  C432  1  0.87094163  0.08583871  0.41370597  1
  C  C433  1  0.75163696  0.46797480  0.34752374  1
  H  H434  1  0.89529448  0.16826649  0.28696025  1
  H  H435  1  0.93624389  0.00021408  0.37046331  1
  C  C436  1  0.51892462  0.16421901  0.48061954  1
  H  H437  1  0.83313099  0.46531230  0.48323797  1
  H  H438  1  0.98453135  0.04543194  0.48726935  1
  C  C439  1  0.51973358  0.24332879  0.45979368  1
  C  C440  1  0.50534214  0.31116392  0.48906611  1
  C  C441  1  0.50871172  0.39731106  0.47160327  1
  H  H442  1  0.50465055  0.14085019  0.38909999  1
  C  C443  1  0.52046169  0.20146947  0.37547259  1
  H  H444  1  0.50250179  0.17310926  0.30370886  1
  C  C445  1  0.52550547  0.21987728  0.32887075  1
  H  H446  1  0.54575081  0.09589325  0.60995126  1
  C  C447  1  0.74485535  0.40919949  0.52517308  1
  C  C448  1  0.97948956  0.40409825  0.58150053  1
  O  O449  1  0.64078084  0.24691120  0.74249243  1
  H  H450  1  0.65483853  0.37394482  0.57392478  1
  C  C451  1  0.70532187  0.26211041  0.72371611  1
  C  C452  1  0.95669364  0.00739768  0.60638121  1
  C  C453  1  0.74946387  0.24972272  0.52573773  1
  C  C454  1  0.79027593  0.47444768  0.50944594  1
  H  H455  1  0.59408403  0.25936237  0.65827849  1
  C  C456  1  0.73807943  0.25972975  0.57816462  1
  C  C457  1  0.66182753  0.25719840  0.59408823  1
  H  H458  1  0.61527526  0.24716386  0.56916007  1
  C  C459  1  0.65244722  0.25870009  0.64203770  1
  C  C460  1  0.54719737  0.45023654  0.50467449  1
  H  H461  1  0.89494682  0.11987448  0.59099171  1
  H  H462  1  0.85934680  0.25769436  0.59404442  1
  C  C463  1  0.80252387  0.26118400  0.60722204  1
  C  C464  1  0.51869806  0.14388000  0.63019055  1
  H  H465  1  0.83706711  0.26408462  0.67663508  1
  C  C466  1  0.94283568  0.07992644  0.58149299  1
  C  C467  1  0.99178346  0.33634031  0.54665098  1
  H  H468  1  0.86268087  0.41518804  0.55643315  1
  C  C469  1  0.71390981  0.26212807  0.67153516  1
  C  C470  1  0.78771153  0.26090253  0.65454921  1
  H  H471  1  0.57121347  0.42272320  0.53645486  1
  C  C472  1  0.99769331  0.25933820  0.56952983  1
  C  C473  1  0.90626090  0.43483451  0.58008462  1
  C  C474  1  0.69930941  0.08325174  0.57253638  1
  C  C475  1  0.51938533  0.14510443  0.67860138  1
  H  H476  1  0.55070460  0.09977983  0.70067175  1
  C  C477  1  0.68874868  0.42344151  0.56086938  1
  C  C478  1  0.74988840  0.32591693  0.50122007  1
  H  H479  1  0.93434808  0.36220796  0.64480539  1
  C  C480  1  0.81638530  0.03594552  0.53477143  1
  C  C481  1  0.96722857  0.30826127  0.65479738  1
  H  H482  1  0.54465572  0.36330819  0.62008913  1
  H  H483  1  0.86097442  0.03956921  0.50855611  1
  H  H484  1  0.65689428  0.12948334  0.58163944  1
  C  C485  1  0.75926094  0.09769935  0.53940651  1
  C  C486  1  0.96986067  0.29536504  0.70159440  1
  H  H487  1  0.94545447  0.33905286  0.72708101  1
  C  C488  1  0.69632571  0.00921290  0.59553230  1
  C  C489  1  0.99592166  0.25061003  0.62092090  1
  C  C490  1  0.55912395  0.01683010  0.53614579  1
  C  C491  1  0.50416984  0.40584540  0.60528725  1
  H  H492  1  0.50575637  0.48517114  0.66308238  1
  C  C493  1  0.75848053  0.16915838  0.50783356  1
  H  H494  1  0.59863279  0.03993756  0.51005227  1
  C  C495  1  0.88704580  0.49519026  0.61164196  1
  O  O496  1  0.76003144  0.26324028  0.74797543  1
  C  C497  1  0.65544192  0.38546166  0.89889769  1
  C  C498  1  0.65502633  0.30004257  0.87963725  1
  H  H499  1  0.58226463  0.02877221  0.95409580  1
  O  O500  1  0.91260075  0.36695824  0.86451141  1
  C  C501  1  0.71864431  0.46546966  0.95525996  1
  C  C502  1  0.87562727  0.11204633  0.86541567  1
  C  C503  1  0.61502380  0.45274361  0.88224031  1
  C  C504  1  0.96488667  0.39832193  0.88907954  1
  O  O505  1  0.61522112  0.07198785  0.82121518  1
  C  C506  1  0.59996819  0.06546669  0.86312382  1
  Cu  Cu507  1  0.51200349  0.21869676  0.86364622  1
  H  H508  1  0.83817972  0.48145715  0.89093949  1
  O  O509  1  0.87689150  0.18998445  0.87588980  1
  O  O510  1  0.60285513  0.27971879  0.85150766  1
  H  H511  1  0.90281611  0.12344090  0.96515933  1
  O  O512  1  0.69614221  0.24910556  0.89416748  1
  O  O513  1  0.56324496  0.11861574  0.88369410  1
  Cu  Cu514  1  0.61947045  0.16680726  0.78412190  1
  Cu  Cu515  1  0.90700905  0.26210257  0.83298188  1
  C  C516  1  0.90317130  0.06120180  0.94908422  1
  H  H517  1  0.57141645  0.44511321  0.85516274  1
  O  O518  1  0.86300972  0.09057208  0.82538809  1
  C  C519  1  0.89449281  0.04725887  0.90099346  1
  C  C520  1  0.70605150  0.39042406  0.93651801  1
  H  H521  1  0.73795657  0.33594438  0.95023041  1
  O  O522  1  0.51411720  0.16686197  0.77544735  1
  C  C523  1  0.95331158  0.47174181  0.91614877  1
  O  O524  1  0.99019915  0.26727204  0.79778035  1
  H  H525  1  0.53107856  0.41987825  0.94121568  1
  H  H526  1  0.75889226  0.46987568  0.98367516  1
  H  H527  1  0.79553387  0.04589346  0.99407244  1
  C  C528  1  0.77645584  0.77475958  0.16930104  1
  H  H529  1  0.90406593  0.66660831  0.13188349  1
  O  O530  1  0.84217439  0.85085848  0.22502238  1
  C  C531  1  0.76748569  0.99430422  0.01442652  1
  H  H532  1  0.68527633  0.96559140  0.12242537  1
  H  H533  1  0.65697162  0.63921900  0.11724958  1
  H  H534  1  0.54679395  0.61606108  0.08228821  1
  H  H535  1  0.54881281  0.91997460  0.01980693  1
  C  C536  1  0.70060227  0.68365796  0.12139761  1
  C  C537  1  0.70712664  0.62074519  0.01318313  1
  C  C538  1  0.80499112  0.76723611  0.08857796  1
  C  C539  1  0.70383236  0.95180889  0.08714338  1
  C  C540  1  0.94546756  0.70704941  0.14743129  1
  H  H541  1  0.57937106  0.80332074  0.19621787  1
  C  C542  1  0.72010777  0.71593587  0.16473451  1
  C  C543  1  0.69282204  0.87463852  0.06855877  1
  C  C544  1  0.91231760  0.53986454  0.04471404  1
  C  C545  1  0.95393920  0.84646208  0.03971784  1
  C  C546  1  0.72384500  0.69975122  0.03250139  1
  H  H547  1  0.92528402  0.67108341  0.22016926  1
  H  H548  1  0.68912974  0.70601113  0.19634480  1
  H  H549  1  0.55460615  0.82166584  0.11730588  1
  H  H550  1  0.87350933  0.54453297  0.01631446  1
  H  H551  1  0.84944552  0.93953472  0.08468207  1
  C  C552  1  0.95495706  0.71167142  0.19501723  1
  C  C553  1  0.72385513  0.85534989  0.02463178  1
  C  C554  1  0.74166212  0.71393582  0.08279473  1
  C  C555  1  0.95800674  0.60785498  0.06012033  1
  C  C556  1  0.82275681  0.79882823  0.13179885  1
  H  H557  1  0.83770730  0.78438422  0.05907587  1
  H  H558  1  0.86643416  0.85024925  0.13602439  1
  C  C559  1  0.96307239  0.77171994  0.06486441  1
  C  C560  1  0.90478681  0.96671228  0.08769229  1
  C  C561  1  0.79059500  0.80907847  0.21721196  1
  C  C562  1  0.98015778  0.76384407  0.11549480  1
  C  C563  1  0.94901826  0.69321643  0.04142824  1
  H  H564  1  0.66695823  0.82564202  0.09147889  1
  H  H565  1  0.81033732  0.58774365  0.07933324  1
  C  C566  1  0.76439837  0.54194340  0.07881507  1
  C  C567  1  0.70387861  0.54938773  0.04770681  1
  C  C568  1  0.96360375  0.92790181  0.06333084  1
  C  C569  1  0.50372891  0.56573243  0.07863454  1
  C  C570  1  0.53864642  0.76295509  0.17776471  1
  C  C571  1  0.50505291  0.50456318  0.11209363  1
  C  C572  1  0.52118667  0.93272463  0.05237426  1
  C  C573  1  0.52372930  0.76995404  0.13103974  1
  C  C574  1  0.70453998  0.77153534  0.00523712  1
  O  O575  1  0.91874837  0.67607788  0.37503749  1
  C  C576  1  0.54050776  0.53416186  0.49891608  1
  O  O577  1  0.78918129  0.82340749  0.36109422  1
  H  H578  1  0.64091282  0.56456990  0.42695697  1
  C  C579  1  0.61114812  0.90998578  0.36013290  1
  C  C580  1  0.95643208  0.58829553  0.43891558  1
  C  C581  1  0.53617746  0.95670835  0.42313982  1
  O  O582  1  0.90026100  0.86335577  0.34193854  1
  Cu  Cu583  1  0.72585250  0.83373763  0.30698113  1
  O  O584  1  0.66661588  0.92088791  0.33232895  1
  O  O585  1  0.57996442  0.84237890  0.36514911  1
  Cu  Cu586  1  0.60652311  0.74989048  0.32813984  1
  C  C587  1  0.93185055  0.52133065  0.41335886  1
  C  C588  1  0.84083397  0.87733338  0.36370946  1
  C  C589  1  0.71247986  0.53185858  0.36654378  1
  C  C590  1  0.76480547  0.95111273  0.42234798  1
  Cu  Cu591  1  0.93718797  0.76254484  0.33310281  1
  C  C592  1  0.94491593  0.67151527  0.41919777  1
  C  C593  1  0.98564206  0.57959850  0.48452136  1
  C  C594  1  0.69378300  0.60166839  0.33400445  1
  O  O595  1  0.65559468  0.66095932  0.35109810  1
  H  H596  1  0.72355720  0.89983949  0.41961465  1
  C  C597  1  0.67854566  0.52235884  0.41176960  1
  C  C598  1  0.59236364  0.97522574  0.38988160  1
  C  C599  1  0.82768717  0.94841558  0.39264101  1
  O  O600  1  0.71881867  0.60242337  0.29471237  1
  O  O601  1  0.53476422  0.76115884  0.27469317  1
  O  O602  1  0.95622461  0.73355347  0.43944480  1
  H  H603  1  0.50654123  0.90018958  0.42728710  1
  C  C604  1  0.50823365  0.56772297  0.45742302  1
  O  O605  1  0.54809832  0.69921714  0.46781182  1
  H  H606  1  0.90824261  0.53284010  0.37806989  1
  C  C607  1  0.51722606  0.65280840  0.44294798  1
  O  O608  1  0.74482311  0.78571495  0.25179770  1
  H  H609  1  0.61461716  0.90844448  0.55192702  1
  H  H610  1  0.81870060  0.60206300  0.51934179  1
  O  O611  1  0.57530494  0.80256853  0.61076736  1
  C  C612  1  0.52403059  0.85261034  0.62207934  1
  H  H613  1  0.82669624  0.51629056  0.61021288  1
  Cu  Cu614  1  0.64836647  0.76224355  0.65055833  1
  O  O615  1  0.85599963  0.62974545  0.66505279  1
  C  C616  1  0.81594564  0.96701160  0.56042001  1
  O  O617  1  0.81236513  0.83246089  0.61377536  1
  C  C618  1  0.72811321  0.56133493  0.56510025  1
  C  C619  1  0.72489499  0.63672605  0.59318941  1
  C  C620  1  0.94340185  0.53113050  0.63915549  1
  C  C621  1  0.60542400  0.73133917  0.74096146  1
  O  O622  1  0.54332247  0.76251728  0.73331066  1
  O  O623  1  0.98873608  0.85745044  0.66258162  1
  O  O624  1  0.67389349  0.65654106  0.61993139  1
  C  C625  1  0.56699286  0.94695399  0.56047286  1
  O  O626  1  0.70620761  0.85944936  0.64690810  1
  Cu  Cu627  1  0.83669558  0.73429170  0.63854648  1
  C  C628  1  0.75439752  0.87625344  0.61687923  1
  O  O629  1  0.78175707  0.68262596  0.58708255  1
  H  H630  1  0.63701337  0.51379988  0.60415376  1
  C  C631  1  0.75365859  0.95177626  0.58975402  1
  O  O632  1  0.65027815  0.71067544  0.70903229  1
  C  C633  1  0.92260431  0.60168661  0.66667777  1
  O  O634  1  0.94881231  0.76448220  0.74583942  1
  C  C635  1  0.77901998  0.54979993  0.52948870  1
  H  H636  1  0.85678010  0.91978493  0.55680552  1
  C  C637  1  0.51444891  0.92511378  0.59520042  1
  O  O638  1  0.96955081  0.63990705  0.69034771  1
  H  H639  1  0.91463682  0.98187032  0.63131184  1
  H  H640  1  0.56227957  0.57659363  0.52567768  1
  Cu  Cu641  1  0.97533532  0.74624805  0.67970924  1
  C  C642  1  0.68068635  0.50057169  0.57954452  1
  H  H643  1  0.64817105  0.99764365  0.61865777  1
  C  C644  1  0.98641103  0.50379252  0.50317731  1
  C  C645  1  0.93033595  0.61442860  0.96451485  1
  C  C646  1  0.92789683  0.91941756  0.95981390  1
  H  H647  1  0.62516845  0.90177723  0.99500559  1
  C  C648  1  0.92936146  0.91555958  0.91013595  1
  C  C649  1  0.91004715  0.75085923  0.91806723  1
  C  C650  1  0.88571712  0.77217797  0.76931472  1
  C  C651  1  0.62924132  0.90659522  0.95664427  1
  C  C652  1  0.97317434  0.73642781  0.88888503  1
  H  H653  1  0.79717951  0.90016161  0.96677289  1
  C  C654  1  0.96414672  0.73980746  0.84091423  1
  H  H655  1  0.78199946  0.78760997  0.82979556  1
  C  C656  1  0.89663373  0.76281764  0.82179105  1
  H  H657  1  0.75678356  0.63305037  0.85967542  1
  C  C658  1  0.70795150  0.66609377  0.84894425  1
  C  C659  1  0.65865333  0.92618736  0.86380204  1
  C  C660  1  0.68689370  0.61761218  0.96517023  1
  C  C661  1  0.69449504  0.68624466  0.80195983  1
  C  C662  1  0.90525445  0.97057055  0.87727300  1
  H  H663  1  0.52281532  0.77697836  0.81414154  1
  H  H664  1  0.90421233  0.96301841  0.84045631  1
  C  C665  1  0.62618890  0.72206791  0.79032954  1
  C  C666  1  0.58958188  0.73191043  0.87147289  1
  H  H667  1  0.73589154  0.67080985  0.77625213  1
  C  C668  1  0.93957198  0.84534383  0.98986452  1
  C  C669  1  0.68081310  0.85492645  0.88400210  1
  C  C670  1  0.83410186  0.77299266  0.85082621  1
  C  C671  1  0.68442751  0.76833526  0.95781007  1
  C  C672  1  0.83838627  0.76904594  0.89998030  1
  H  H673  1  0.55407597  0.75537637  0.89989087  1
  C  C674  1  0.57423923  0.74694590  0.82531436  1
  C  C675  1  0.67265734  0.68940817  0.93806422  1
  H  H676  1  0.79293911  0.79022997  0.92090176  1
  H  H677  1  0.66721575  0.93480265  0.82570547  1
  H  H678  1  0.94393364  0.85744898  0.89105665  1
  C  C679  1  0.93049776  0.69423579  0.99265749  1
  H  H680  1  0.59649618  0.58057078  0.89029408  1
  C  C681  1  0.61043825  0.97973200  0.93553421  1
  H  H682  1  0.70447997  0.80349331  0.86273238  1
  C  C683  1  0.65900233  0.69386330  0.88623857  1
  C  C684  1  0.92451678  0.76877293  0.96919478  1
  C  C685  1  0.66391850  0.84466809  0.93221212  1
  H  H686  1  0.81446794  0.60987594  0.93551766  1
  H  H687  1  0.53141270  0.54681281  0.98384881  1
  C  C688  1  0.86901319  0.57913528  0.93846912  1
  C  C689  1  0.62822904  0.52758478  0.90387304  1
  C  C690  1  0.67952364  0.53684417  0.94150296  1
  C  C691  1  0.87956525  0.50710601  0.91338445  1
  O  O692  1  0.82959714  0.79013226  0.75033016  1
  C  C693  1  0.91820023  0.99835535  0.97987670  1
  C  C694  1  0.62320911  0.98902797  0.88820752  1
  C  C695  1  0.76280972  0.91534161  0.99851162  1
