# generated using pymatgen
data_Zn3H4(C5O4)4
_symmetry_space_group_name_H-M   'P 1'
_cell_length_a   18.68711722
_cell_length_b   16.94572073
_cell_length_c   19.85166180
_cell_angle_alpha   90.00000000
_cell_angle_beta   90.00000000
_cell_angle_gamma   90.00000000
_symmetry_Int_Tables_number   1
_chemical_formula_structural   Zn3H4(C5O4)4
_chemical_formula_sum   'Zn24 H32 C160 O128'
_cell_volume   6286.35963169
_cell_formula_units_Z   8
loop_
 _symmetry_equiv_pos_site_id
 _symmetry_equiv_pos_as_xyz
  1  'x, y, z'
loop_
 _atom_site_type_symbol
 _atom_site_label
 _atom_site_symmetry_multiplicity
 _atom_site_fract_x
 _atom_site_fract_y
 _atom_site_fract_z
 _atom_site_occupancy
  C  C0  1  0.12558366  0.19337071  0.02818464  1
  Zn  Zn1  1  0.20484386  0.11920214  0.40864800  1
  O  O2  1  0.07903225  0.22511874  0.26651138  1
  H  H3  1  0.08623785  0.20925548  0.15451463  1
  O  O4  1  0.13709530  0.15704417  0.49094569  1
  C  C5  1  0.14025600  0.18358724  0.15100683  1
  C  C6  1  0.13990428  0.20342129  0.27246292  1
  C  C7  1  0.16699326  0.16324652  0.08720969  1
  C  C8  1  0.22269547  0.41378520  0.12079240  1
  C  C9  1  0.17915553  0.16624246  0.20821592  1
  C  C10  1  0.17193971  0.42368757  0.06692384  1
  C  C11  1  0.24593878  0.13171153  0.20425429  1
  O  O12  1  0.07194411  0.23919803  0.04041558  1
  C  C13  1  0.20817558  0.45902961  0.17842946  1
  O  O14  1  0.17171049  0.20362292  0.32844986  1
  O  O15  1  0.11565248  0.02417541  0.37580239  1
  C  C16  1  0.11298199  0.47126200  0.07755213  1
  C  C17  1  0.23731455  0.12989515  0.08406136  1
  H  H18  1  0.24611683  0.45752770  0.22382421  1
  H  H19  1  0.07546653  0.48038178  0.03542154  1
  O  O20  1  0.12378296  0.38474557  0.96426316  1
  O  O21  1  0.13502244  0.17032905  0.97095736  1
  O  O22  1  0.07493810  0.11298994  0.57492290  1
  C  C23  1  0.13148626  0.13791295  0.55339090  1
  O  O24  1  0.10810508  0.12470164  0.79732374  1
  Zn  Zn25  1  0.02557280  0.32746690  0.97595512  1
  Zn  Zn26  1  0.07619396  0.08969239  0.89987490  1
  C  C27  1  0.19072965  0.14770386  0.60477810  1
  H  H28  1  0.11649520  0.10003663  0.67400070  1
  C  C29  1  0.17424467  0.11817195  0.79525167  1
  C  C30  1  0.21151341  0.14052762  0.72947478  1
  C  C31  1  0.17048497  0.12830701  0.67098987  1
  O  O32  1  0.20420506  0.09243792  0.84807867  1
  O  O33  1  0.17342631  0.40012740  0.75466859  1
  C  C34  1  0.15283487  0.45230253  0.78739122  1
  O  O35  1  0.23880841  0.36713537  0.97649024  1
  C  C36  1  0.17917412  0.38841336  0.99789962  1
  C  C37  1  0.09595384  0.95441979  0.47719426  1
  O  O38  1  0.09523432  0.82651688  0.22937594  1
  C  C39  1  0.06439705  0.87914869  0.19305892  1
  C  C40  1  0.09537444  0.82039495  0.06850615  1
  Zn  Zn41  1  0.06896430  0.71105430  0.21951249  1
  C  C42  1  0.15875922  0.56027921  0.25690691  1
  O  O43  1  0.11937287  0.68431826  0.04072125  1
  O  O44  1  0.14344830  0.71824165  0.14145894  1
  C  C45  1  0.12328422  0.73752257  0.08359629  1
  C  C46  1  0.03548435  0.56001824  0.13728610  1
  C  C47  1  0.15217176  0.51178994  0.19123274  1
  C  C48  1  0.22892261  0.95943385  0.44150202  1
  O  O49  1  0.11573817  0.61392088  0.27551238  1
  C  C50  1  0.04002065  0.94704138  0.09132785  1
  C  C51  1  0.07071682  0.87723879  0.11646453  1
  C  C52  1  0.16694088  0.94332827  0.49424889  1
  C  C53  1  0.03112930  0.96574242  0.02293187  1
  O  O54  1  0.03558948  0.93362154  0.22344794  1
  C  C55  1  0.10193764  0.51463052  0.13859490  1
  O  O56  1  0.21241279  0.54432644  0.28944930  1
  C  C57  1  0.07316649  0.99283210  0.41384887  1
  H  H58  1  0.01844065  0.99177988  0.12934896  1
  O  O59  1  0.00689876  0.98387799  0.39612269  1
  O  O60  1  0.01394112  0.59640252  0.18910680  1
  C  C61  1  0.09080477  0.83881576  0.00023683  1
  H  H62  1  0.11520336  0.79655480  0.96334171  1
  C  C63  1  0.06269812  0.89891805  0.58369690  1
  C  C64  1  0.18712794  0.90925084  0.55603001  1
  C  C65  1  0.06217678  0.91858176  0.89943884  1
  O  O66  1  0.14644497  0.88121146  0.72855748  1
  C  C67  1  0.13507747  0.88825657  0.60194198  1
  O  O68  1  0.01926378  0.71045772  0.80131223  1
  C  C69  1  0.17201325  0.86050070  0.67174320  1
  O  O70  1  0.09406356  0.86886544  0.86540603  1
  Zn  Zn71  1  0.05280179  0.82602025  0.77059531  1
  O  O72  1  0.01148784  0.82061277  0.67253388  1
  C  C73  1  0.05808420  0.90912546  0.97578116  1
  H  H74  1  0.24190804  0.89818010  0.56939629  1
  O  O75  1  0.03245852  0.69871246  0.90827180  1
  C  C76  1  0.04238584  0.93317542  0.52218952  1
  O  O77  1  0.03974290  0.97912968  0.87147452  1
  O  O78  1  0.22727446  0.82467110  0.66914318  1
  O  O79  1  0.13562102  0.50481869  0.82087953  1
  Zn  Zn80  1  0.00397592  0.63797696  0.99684124  1
  O  O81  1  0.35473648  0.08967693  0.24283272  1
  O  O82  1  0.44890014  0.16719569  0.40512682  1
  C  C83  1  0.46066031  0.31284984  0.01724004  1
  Zn  Zn84  1  0.39891209  0.26649616  0.44156482  1
  Zn  Zn85  1  0.46029399  0.12649213  0.25926528  1
  C  C86  1  0.29561271  0.12025955  0.26194524  1
  O  O87  1  0.28678763  0.13299371  0.32228332  1
  O  O88  1  0.35861345  0.37516899  0.38018255  1
  C  C89  1  0.39545479  0.40023488  0.33098198  1
  Zn  Zn90  1  0.44087668  0.35328110  0.17845205  1
  O  O91  1  0.45271615  0.23003604  0.15592497  1
  C  C92  1  0.28245725  0.35457776  0.13101504  1
  O  O93  1  0.28893071  0.29648219  0.09438990  1
  O  O94  1  0.32519793  0.36528416  0.17926284  1
  O  O95  1  0.43191676  0.35186002  0.29840031  1
  H  H96  1  0.32779893  0.08094297  0.13806853  1
  O  O97  1  0.46169225  0.35990799  0.06548758  1
  O  O98  1  0.25855261  0.02471824  0.44597188  1
  C  C99  1  0.27485813  0.10921894  0.14135135  1
  C  C100  1  0.28606654  0.10819494  0.02053261  1
  C  C101  1  0.40325483  0.48700542  0.32207798  1
  O  O102  1  0.27207928  0.20096744  0.46900241  1
  O  O103  1  0.49506394  0.32891464  0.47561974  1
  C  C104  1  0.47869109  0.47913991  0.48100520  1
  O  O105  1  0.30977349  0.04122888  0.00962893  1
  C  C106  1  0.27871778  0.17368306  0.71873958  1
  O  O107  1  0.31775103  0.18422350  0.83243246  1
  H  H108  1  0.44511366  0.43114090  0.50485948  1
  C  C109  1  0.26223488  0.17676646  0.59427224  1
  H  H110  1  0.48146231  0.17454653  0.51899120  1
  O  O111  1  0.38478557  0.23965930  0.75835127  1
  Zn  Zn112  1  0.31843847  0.07493187  0.88001542  1
  H  H113  1  0.35570579  0.21735564  0.64233197  1
  C  C114  1  0.33369837  0.20223006  0.77164859  1
  O  O115  1  0.48526290  0.17357348  0.64991232  1
  C  C116  1  0.30095355  0.19131783  0.65299736  1
  O  O117  1  0.43236453  0.03814039  0.87597830  1
  C  C118  1  0.29525497  0.19938085  0.52911722  1
  O  O119  1  0.36060554  0.22351244  0.53357931  1
  O  O120  1  0.29731517  0.15715588  0.97197091  1
  Zn  Zn121  1  0.31298597  0.27557475  0.98625017  1
  O  O122  1  0.41994717  0.32746658  0.96910255  1
  C  C123  1  0.44439202  0.77786460  0.00624516  1
  C  C124  1  0.42291122  0.69376434  0.03392803  1
  C  C125  1  0.39225204  0.65772318  0.31863343  1
  C  C126  1  0.36560704  0.53504255  0.36949645  1
  C  C127  1  0.44874592  0.52846632  0.27906586  1
  C  C128  1  0.30227390  0.65000052  0.42083074  1
  O  O129  1  0.34883891  0.79087505  0.32229123  1
  C  C130  1  0.35452803  0.61470328  0.36794243  1
  O  O131  1  0.42838359  0.91827187  0.41521884  1
  O  O132  1  0.43779194  0.76822460  0.25606818  1
  O  O133  1  0.46750866  0.66424485  0.07485679  1
  Zn  Zn134  1  0.35613629  0.82511578  0.43201997  1
  C  C135  1  0.43779058  0.61175752  0.27916458  1
  O  O136  1  0.44160873  0.73529651  0.49380462  1
  O  O137  1  0.29098213  0.72212118  0.43596409  1
  C  C138  1  0.39510319  0.74564309  0.29699383  1
  O  O139  1  0.25415396  0.90931309  0.40576461  1
  H  H140  1  0.33328572  0.50646469  0.40862334  1
  O  O141  1  0.37165848  0.65442212  0.01555858  1
  O  O142  1  0.27253168  0.60009676  0.45210471  1
  C  C143  1  0.49342335  0.93201443  0.43271512  1
  H  H144  1  0.47078840  0.64176989  0.24060189  1
  C  C145  1  0.49422959  0.70327382  0.46060527  1
  C  C146  1  0.46171297  0.55559975  0.49797302  1
  O  O147  1  0.32430563  0.95055528  0.84571780  1
  C  C148  1  0.46209543  0.92146558  0.94095716  1
  C  C149  1  0.39888947  0.87827196  0.92817645  1
  C  C150  1  0.41470082  0.87870537  0.57592869  1
  O  O151  1  0.41703933  0.83848393  0.62892647  1
  H  H152  1  0.34480056  0.76800431  0.95181744  1
  O  O153  1  0.36379736  0.88281416  0.53857702  1
  C  C154  1  0.39245227  0.80618841  0.96219614  1
  C  C155  1  0.33207756  0.89131356  0.88377303  1
  Zn  Zn156  1  0.46581545  0.72962383  0.61011918  1
  O  O157  1  0.28222357  0.84522351  0.88747839  1
  C  C158  1  0.40943299  0.56523551  0.56095605  1
  O  O159  1  0.39459337  0.62592761  0.59583446  1
  C  C160  1  0.48186214  0.93713414  0.56224888  1
  H  H161  1  0.48061191  0.97351021  0.67355177  1
  C  C162  1  0.47876327  0.99743337  0.90824919  1
  O  O163  1  0.38093256  0.50251483  0.57493473  1
  O  O164  1  0.64970141  0.42745827  0.33611996  1
  C  C165  1  0.53606369  0.45171775  0.43916211  1
  C  C166  1  0.54435586  0.36447389  0.44482800  1
  O  O167  1  0.65886536  0.34509178  0.11195352  1
  C  C168  1  0.64190315  0.16512593  0.44129977  1
  O  O169  1  0.72683071  0.22337338  0.35449429  1
  C  C170  1  0.59741899  0.14297946  0.05448289  1
  C  C171  1  0.69006548  0.40736205  0.12265073  1
  C  C172  1  0.68978663  0.16232655  0.37264590  1
  C  C173  1  0.54146480  0.19781120  0.06853103  1
  O  O174  1  0.59759802  0.32762031  0.42304792  1
  Zn  Zn175  1  0.70841081  0.34011002  0.38525535  1
  C  C176  1  0.68212559  0.17143122  0.49722529  1
  O  O177  1  0.69716348  0.03539161  0.04549003  1
  C  C178  1  0.51761302  0.24566869  0.01248309  1
  O  O179  1  0.53370659  0.14199241  0.17657371  1
  O  O180  1  0.51681246  0.43266902  0.21901870  1
  H  H181  1  0.61868533  0.10672608  0.09669349  1
  C  C182  1  0.56650297  0.16464758  0.44793399  1
  O  O183  1  0.53355560  0.16338527  0.32799656  1
  O  O184  1  0.68163958  0.44469212  0.18021977  1
  O  O185  1  0.69206317  0.10200667  0.34176062  1
  C  C186  1  0.63309172  0.49637825  0.35548231  1
  C  C187  1  0.50662041  0.18991127  0.13577776  1
  C  C188  1  0.51568949  0.16142497  0.38752471  1
  C  C189  1  0.74927455  0.42996343  0.06989413  1
  H  H190  1  0.74083547  0.16782056  0.49617150  1
  C  C191  1  0.55391739  0.24113504  0.95312354  1
  C  C192  1  0.65718930  0.18683804  0.56366677  1
  O  O193  1  0.55613697  0.27406931  0.66265983  1
  O  O194  1  0.54149852  0.02163179  0.91596694  1
  O  O195  1  0.69468365  0.39642768  0.70462049  1
  O  O196  1  0.68257527  0.48178049  0.62494240  1
  C  C197  1  0.72059550  0.20577556  0.61425397  1
  O  O198  1  0.63207986  0.42721490  0.92794780  1
  C  C199  1  0.53890778  0.17638914  0.51195904  1
  Zn  Zn200  1  0.64393396  0.28262860  0.72998147  1
  O  O201  1  0.67312228  0.13766181  0.84102907  1
  C  C202  1  0.61212513  0.18869507  0.93953245  1
  C  C203  1  0.58440799  0.18242958  0.56691150  1
  H  H204  1  0.52834304  0.28246555  0.91611203  1
  C  C205  1  0.63661008  0.19082688  0.86808825  1
  O  O206  1  0.61712619  0.24807827  0.83191548  1
  O  O207  1  0.71402783  0.04836133  0.93998349  1
  C  C208  1  0.53973098  0.20781066  0.63427547  1
  O  O209  1  0.70916239  0.20237996  0.67890657  1
  H  H210  1  0.65451102  0.42875894  0.80717832  1
  C  C211  1  0.67155757  0.46224902  0.68561621  1
  Zn  Zn212  1  0.64270261  0.01029037  0.85915007  1
  O  O213  1  0.59641267  0.00945494  0.75258770  1
  C  C214  1  0.63101712  0.14171785  0.99269340  1
  C  C215  1  0.68481948  0.06929480  0.99474044  1
  C  C216  1  0.60499550  0.49070395  0.92705854  1
  C  C217  1  0.63344333  0.48884589  0.79992457  1
  O  O218  1  0.61839564  0.85161792  0.07085456  1
  O  O219  1  0.66816486  0.58836878  0.10009687  1
  C  C220  1  0.73042387  0.74180895  0.49110803  1
  H  H221  1  0.58480456  0.63808001  0.39259736  1
  H  H222  1  0.69303896  0.69709636  0.36995998  1
  C  C223  1  0.74878439  0.77987047  0.42851334  1
  O  O224  1  0.57050874  0.74011830  0.09621404  1
  C  C225  1  0.70830102  0.74226159  0.24269592  1
  O  O226  1  0.53792903  0.73856434  0.43012044  1
  O  O227  1  0.66632106  0.68646653  0.24976351  1
  C  C228  1  0.57090832  0.80284267  0.06360452  1
  C  C229  1  0.55457096  0.58899193  0.41821218  1
  O  O230  1  0.66098667  0.55221038  0.32478639  1
  Zn  Zn231  1  0.66584074  0.56645905  0.21337333  1
  C  C232  1  0.72789421  0.74624605  0.36648806  1
  O  O233  1  0.53465790  0.97042104  0.40000822  1
  O  O234  1  0.71533271  0.76893525  0.18355590  1
  O  O235  1  0.70661293  0.67278294  0.49037708  1
  O  O236  1  0.54457816  0.55763465  0.20599782  1
  Zn  Zn237  1  0.57358522  0.62496927  0.04035220  1
  C  C238  1  0.73136171  0.58440241  0.07402485  1
  C  C239  1  0.74565879  0.77703237  0.30345402  1
  H  H240  1  0.61651275  0.83594041  0.48360390  1
  C  C241  1  0.57529911  0.51078163  0.40625808  1
  C  C242  1  0.50005962  0.61260032  0.46183132  1
  C  C243  1  0.50636398  0.82106871  0.01712470  1
  C  C244  1  0.50994173  0.50175862  0.23347930  1
  O  O245  1  0.74218839  0.77383793  0.54809661  1
  Zn  Zn246  1  0.72349095  0.57628278  0.56126098  1
  C  C247  1  0.58937098  0.93951902  0.64525960  1
  O  O248  1  0.56568011  0.70207270  0.64975258  1
  C  C249  1  0.51460921  0.89365504  0.98548623  1
  C  C250  1  0.59485774  0.63124223  0.65222584  1
  C  C251  1  0.61606957  0.88728248  0.59174670  1
  C  C252  1  0.60343681  0.59237459  0.71823220  1
  C  C253  1  0.59383437  0.88014833  0.51754850  1
  C  C254  1  0.57934681  0.63472121  0.77294049  1
  O  O255  1  0.65920295  0.82558890  0.77666715  1
  Zn  Zn256  1  0.66532020  0.81795885  0.65827171  1
  O  O257  1  0.60055396  0.68283490  0.94380672  1
  C  C258  1  0.63209909  0.97735054  0.70549020  1
  C  C259  1  0.70064567  0.84069256  0.82447236  1
  C  C260  1  0.51477932  0.96358651  0.63058430  1
  O  O261  1  0.61601110  0.60339192  0.59912844  1
  C  C262  1  0.60918216  0.53148196  0.85583332  1
  C  C263  1  0.58384605  0.60606983  0.83947597  1
  C  C264  1  0.56353198  0.67461142  0.89038031  1
  O  O265  1  0.67814407  0.88379074  0.87194276  1
  H  H266  1  0.55334688  0.69342975  0.76304690  1
  O  O267  1  0.72886041  0.73266333  0.70582499  1
  O  O268  1  0.56976965  0.51969033  0.97468185  1
  C  C269  1  0.63606045  0.51713678  0.73336517  1
  H  H270  1  0.56686532  0.92690006  0.99161529  1
  C  C271  1  0.52432034  0.92033641  0.50235728  1
  O  O272  1  0.51542901  0.71868885  0.87520111  1
  Zn  Zn273  1  0.58631309  0.99688656  0.55423500  1
  O  O274  1  0.69610546  0.97900912  0.70912539  1
  C  C275  1  0.78248777  0.36204863  0.04097748  1
  H  H276  1  0.76597201  0.30107964  0.05235276  1
  O  O277  1  0.79331156  0.42100230  0.41013106  1
  C  C278  1  0.80310834  0.48081472  0.44816937  1
  O  O279  1  0.97250108  0.07668630  0.06815603  1
  C  C280  1  0.99382670  0.04477422  0.01467997  1
  O  O281  1  0.97773211  0.43538027  0.93035568  1
  O  O282  1  0.78252054  0.21653265  0.59663808  1
  O  O283  1  0.92835293  0.29001185  0.94540203  1
  C  C284  1  0.87018148  0.29392234  0.97878100  1
  C  C285  1  0.86597941  0.45440294  0.98582771  1
  O  O286  1  0.98418924  0.07720240  0.95740682  1
  C  C287  1  0.93076982  0.48242590  0.94775287  1
  O  O288  1  0.84238135  0.23410463  0.99860799  1
  O  O289  1  0.79309239  0.47394039  0.50707477  1
  C  C290  1  0.84126613  0.37718945  0.99829812  1
  C  C291  1  0.85336309  0.61546039  0.30542149  1
  O  O292  1  0.78557462  0.55050688  0.21720061  1
  C  C293  1  0.93755171  0.74358133  0.30872482  1
  C  C294  1  0.76636880  0.50883840  0.05526335  1
  Zn  Zn295  1  0.81249893  0.74503295  0.12738142  1
  C  C296  1  0.83163428  0.88485876  0.24371055  1
  O  O297  1  0.96602294  0.79615292  0.34820386  1
  O  O298  1  0.84677418  0.79793906  0.03574256  1
  H  H299  1  0.92832205  0.72427621  0.43316226  1
  O  O300  1  0.85634238  0.64159617  0.18503207  1
  O  O301  1  0.95149515  0.74826399  0.24829563  1
  C  C302  1  0.89584002  0.68036337  0.40713706  1
  C  C303  1  0.78507743  0.85458822  0.42410710  1
  C  C304  1  0.89429297  0.67713133  0.33754591  1
  C  C305  1  0.83113186  0.60273281  0.23159893  1
  Zn  Zn306  1  0.97518778  0.91560089  0.31089460  1
  O  O307  1  0.81777572  0.86349000  0.18493898  1
  C  C308  1  0.82047742  0.56158888  0.34827812  1
  C  C309  1  0.86065092  0.62629573  0.45062071  1
  H  H310  1  0.83317981  0.93916986  0.36182123  1
  C  C311  1  0.80548887  0.88117077  0.36228913  1
  C  C312  1  0.82984525  0.55909035  0.41890970  1
  O  O313  1  0.87468721  0.93839051  0.25527881  1
  C  C314  1  0.79445630  0.83965790  0.29919377  1
  O  O315  1  0.95059193  0.75394115  0.00844832  1
  C  C316  1  0.81001547  0.91748711  0.47706602  1
  O  O317  1  0.99597693  0.56611577  0.08480821  1
  O  O318  1  0.76786370  0.64353174  0.06278946  1
  C  C319  1  0.82665145  0.51752460  0.01237153  1
  H  H320  1  0.78801643  0.51706241  0.32401788  1
  O  O321  1  0.84131791  0.97454354  0.45842216  1
  C  C322  1  0.81903615  0.77417105  0.78902203  1
  C  C323  1  0.88901690  0.75017092  0.80116036  1
  C  C324  1  0.91919247  0.75238795  0.86671129  1
  O  O325  1  0.83599856  0.60219948  0.56680778  1
  C  C326  1  0.77656669  0.80875428  0.83795299  1
  Zn  Zn327  1  0.85361090  0.80728968  0.58521502  1
  O  O328  1  0.93756442  0.55536966  0.93483086  1
  O  O329  1  0.90415279  0.70298748  0.54176462  1
  C  C330  1  0.79474327  0.74349891  0.72001621  1
  H  H331  1  0.92293037  0.72121094  0.76211549  1
  O  O332  1  0.93921933  0.89224857  0.61219106  1
  O  O333  1  0.79637220  0.90345663  0.53828996  1
  O  O334  1  0.84218148  0.72926238  0.67755964  1
  C  C335  1  0.87186233  0.77786388  0.91804375  1
  C  C336  1  0.80374908  0.80786201  0.90396292  1
  C  C337  1  0.86710673  0.64197699  0.52368395  1
  H  H338  1  0.77119729  0.83569602  0.94698522  1
  C  C339  1  0.99554919  0.71711261  0.85903020  1
  H  H340  1  0.98499670  0.93869971  0.51290970  1
  C  C341  1  0.99941742  0.86850629  0.62496016  1
  C  C342  1  0.89140883  0.77727904  0.99274426  1
  H  H343  1  0.84011995  0.57980877  0.99993948  1
