# generated using pymatgen
data_CuH12(C5N)4
_symmetry_space_group_name_H-M   'P 1'
_cell_length_a   16.72622678
_cell_length_b   4.67077193
_cell_length_c   18.49513644
_cell_angle_alpha   90.00000000
_cell_angle_beta   90.00000000
_cell_angle_gamma   90.00000000
_symmetry_Int_Tables_number   1
_chemical_formula_structural   CuH12(C5N)4
_chemical_formula_sum   'Cu4 H48 C80 N16'
_cell_volume   1444.92126227
_cell_formula_units_Z   4
loop_
 _symmetry_equiv_pos_site_id
 _symmetry_equiv_pos_as_xyz
  1  'x, y, z'
loop_
 _atom_site_type_symbol
 _atom_site_label
 _atom_site_symmetry_multiplicity
 _atom_site_fract_x
 _atom_site_fract_y
 _atom_site_fract_z
 _atom_site_occupancy
  N  N0  1  0.11053699  0.25264545  0.10181396  1
  C  C1  1  0.13607437  0.26571688  0.23100833  1
  C  C2  1  0.15932281  0.24228489  0.15722265  1
  C  C3  1  0.05763220  0.35530217  0.24790775  1
  C  C4  1  0.03573096  0.31450276  0.11889688  1
  H  H5  1  0.21948221  0.19251056  0.13870476  1
  Cu  Cu6  1  0.48250633  0.26511209  0.01911467  1
  C  C7  1  0.00315313  0.36574123  0.18841847  1
  H  H8  1  0.00088292  0.30395826  0.07174484  1
  C  C9  1  0.49168114  0.32220152  0.23973959  1
  N  N10  1  0.42194454  0.26214402  0.34905262  1
  H  H11  1  0.21972461  0.12822422  0.37297559  1
  H  H12  1  0.18153041  0.24881540  0.27606118  1
  H  H13  1  0.41306472  0.29413322  0.46363011  1
  C  C14  1  0.35295347  0.32808164  0.48989181  1
  C  C15  1  0.04013934  0.41016796  0.32827471  1
  C  C16  1  0.28739822  0.14585629  0.48267393  1
  C  C17  1  0.47993327  0.18860332  0.30597533  1
  C  C18  1  0.37620519  0.49040124  0.33461557  1
  H  H19  1  0.17840970  0.23715130  0.66730141  1
  H  H20  1  0.43983267  0.13049782  0.71986127  1
  C  C21  1  0.46171578  0.43776536  0.63450820  1
  H  H22  1  0.42211005  0.34493133  0.59198097  1
  C  C23  1  0.21355762  0.24018148  0.51678562  1
  C  C24  1  0.46867063  0.33378367  0.70445947  1
  C  C25  1  0.12442516  0.12582407  0.65002979  1
  C  C26  1  0.13893122  0.06403517  0.51327701  1
  C  C27  1  0.06860265  0.02101672  0.69731735  1
  C  C28  1  0.10065063  0.00673608  0.58003533  1
  C  C29  1  0.22300100  0.46783929  0.56623593  1
  C  C30  1  0.12498183  0.20876603  0.90639180  1
  N  N31  1  0.41617332  0.00186570  0.89312074  1
  N  N32  1  0.08994942  0.28095317  0.84332592  1
  C  C33  1  0.43252134  0.22239234  0.84528413  1
  C  C34  1  0.36071259  0.29302862  0.80925672  1
  H  H35  1  0.23220482  0.19062404  0.83732636  1
  C  C36  1  0.29645464  0.12608360  0.83596218  1
  H  H37  1  0.08723920  0.04279782  0.93018678  1
  C  C38  1  0.18721909  0.35857306  0.93814458  1
  H  H39  1  0.21222832  0.28973429  0.98786922  1
  H  H40  1  0.35388739  0.47193598  0.77317807  1
  C  C41  1  0.12711151  0.48155312  0.80495677  1
  H  H42  1  0.06380785  0.06533562  0.75578581  1
  H  H43  1  0.09968894  0.49258235  0.75146567  1
  C  C44  1  0.45150308  0.70359213  0.15091213  1
  H  H45  1  0.18771206  0.59364403  0.05894564  1
  N  N46  1  0.38744635  0.72327256  0.02963238  1
  C  C47  1  0.25459647  0.63234011  0.06438423  1
  C  C48  1  0.38473012  0.67551659  0.10393929  1
  C  C49  1  0.30264275  0.63067128  0.12540439  1
  C  C50  1  0.44276176  0.55743843  0.22410167  1
  C  C51  1  0.31103564  0.68268978  0.00702260  1
  H  H52  1  0.28389280  0.58438783  0.18112842  1
  N  N53  1  0.06920731  0.70981518  0.43533942  1
  H  H54  1  0.33958982  0.83660751  0.26047912  1
  C  C55  1  0.37967133  0.64667315  0.27174245  1
  C  C56  1  0.08779809  0.59453868  0.36807242  1
  H  H57  1  0.28975539  0.93606431  0.45645545  1
  H  H58  1  0.18159369  0.69617284  0.28432645  1
  C  C59  1  0.15505257  0.74969666  0.33620384  1
  C  C60  1  0.12560593  0.92596178  0.44670142  1
  H  H61  1  0.32845591  0.54265716  0.37821873  1
  C  C62  1  0.17374151  0.96389952  0.38241908  1
  H  H63  1  0.30834658  0.81440672  0.60182562  1
  N  N64  1  0.03641372  0.82324505  0.58350035  1
  C  C65  1  0.29482668  0.62203572  0.57022317  1
  H  H66  1  0.17047593  0.55285618  0.59454148  1
  Cu  Cu67  1  0.46707264  0.77850597  0.51917947  1
  N  N68  1  0.35757946  0.58277730  0.52426311  1
  N  N69  1  0.49089279  0.69039130  0.61801703  1
  C  C70  1  0.01351836  0.84870447  0.65355635  1
  C  C71  1  0.29013552  0.73726573  0.93242670  1
  Cu  Cu72  1  0.47884032  0.81040309  0.96298320  1
  C  C73  1  0.22095292  0.60053202  0.89910535  1
  H  H74  1  0.22535297  0.79882594  0.79060614  1
  C  C75  1  0.19564326  0.64268135  0.82566779  1
  C  C76  1  0.33424073  0.93165646  0.88403881  1
  C  C77  1  0.66989373  0.35713982  0.05878165  1
  H  H78  1  0.53893103  0.24177562  0.20285939  1
  H  H79  1  0.72595702  0.31942957  0.20640135  1
  C  C80  1  0.62320236  0.13179032  0.09780473  1
  N  N81  1  0.54622629  0.04336775  0.08566962  1
  C  C82  1  0.75713845  0.48939972  0.17197909  1
  H  H83  1  0.85903748  0.09535456  0.07053651  1
  H  H84  1  0.94397992  0.45286060  0.19677423  1
  H  H85  1  0.71557748  0.00698111  0.17973720  1
  N  N86  1  0.93253035  0.36370178  0.42227762  1
  C  C87  1  0.81151851  0.21717889  0.48871638  1
  H  H88  1  0.53167904  0.19520103  0.42620333  1
  C  C89  1  0.90933867  0.13977347  0.31439331  1
  C  C90  1  0.86361239  0.21570731  0.42736932  1
  C  C91  1  0.96291762  0.32448766  0.35390126  1
  C  C92  1  0.66616919  0.22216057  0.44357010  1
  C  C93  1  0.84568183  0.07273509  0.35770887  1
  C  C94  1  0.72838623  0.09036569  0.48370766  1
  C  C95  1  0.58805447  0.12869314  0.45284296  1
  H  H96  1  0.67888342  0.41913555  0.41092070  1
  H  H97  1  0.51104935  0.00564677  0.32335330  1
  H  H98  1  0.92221786  0.03428839  0.26312060  1
  H  H99  1  0.72485873  0.15851717  0.62478840  1
  C  C100  1  0.83485403  0.32601388  0.55769785  1
  C  C101  1  0.78018829  0.29246541  0.61988687  1
  H  H102  1  0.82736560  0.12787683  0.74928943  1
  C  C103  1  0.81224676  0.45015267  0.67405793  1
  N  N104  1  0.90218745  0.47570418  0.57418327  1
  H  H105  1  0.79323440  0.49493876  0.72994204  1
  H  H106  1  0.55294140  0.04570560  0.64108631  1
  C  C107  1  0.50908565  0.37811683  0.83520958  1
  C  C108  1  0.57153464  0.42930807  0.88750585  1
  N  N109  1  0.57195907  0.39527381  0.96201248  1
  C  C110  1  0.51234561  0.48849496  0.76004106  1
  C  C111  1  0.85551163  0.04242412  0.86285243  1
  H  H112  1  0.81946186  0.19500674  0.89105628  1
  C  C113  1  0.86282134  0.00550610  0.78669442  1
  H  H114  1  0.99813266  0.48011317  0.80916233  1
  C  C115  1  0.65027186  0.42626956  0.98526053  1
  C  C116  1  0.65238052  0.97887367  0.16112024  1
  C  C117  1  0.52910947  0.83875527  0.13830513  1
  C  C118  1  0.73215771  0.51867278  0.09674400  1
  C  C119  1  0.59460703  0.79741923  0.18762870  1
  N  N120  1  0.85921986  0.84348886  0.15760865  1
  C  C121  1  0.76872698  0.75775972  0.05961754  1
  C  C122  1  0.82368201  0.63172104  0.19736982  1
  C  C123  1  0.83327152  0.89027923  0.09111520  1
  H  H124  1  0.73430438  0.81236915  0.00995393  1
  H  H125  1  0.59561194  0.65766022  0.23559651  1
  H  H126  1  0.85849391  0.60339703  0.24568269  1
  H  H127  1  0.79690171  0.90431207  0.34998238  1
  C  C128  1  0.53748290  0.82513361  0.66232216  1
  C  C129  1  0.62333493  0.78121808  0.53527617  1
  C  C130  1  0.94092689  0.73716037  0.68481005  1
  C  C131  1  0.70345074  0.85538022  0.52713222  1
  C  C132  1  0.88716448  0.56470713  0.64413902  1
  H  H133  1  0.74894699  0.74109195  0.55546073  1
  C  C134  1  0.54881003  0.74775591  0.73443201  1
  H  H135  1  0.59711034  0.60059228  0.56486258  1
  N  N136  1  0.56934005  0.93058847  0.50146003  1
  Cu  Cu137  1  0.98291747  0.60670381  0.50212074  1
  N  N138  1  0.89131682  0.89867238  0.91498289  1
  H  H139  1  0.57390295  0.89507783  0.77281460  1
  C  C140  1  0.94100804  0.69801704  0.89418238  1
  C  C141  1  0.95449434  0.64437961  0.82168782  1
  H  H142  1  0.97417733  0.60449179  0.94284097  1
  C  C143  1  0.91833800  0.79434612  0.76280144  1
  H  H144  1  0.66704142  0.62279189  0.81225524  1
  C  C145  1  0.70011114  0.52296102  0.92285132  1
  H  H146  1  0.76354676  0.57924696  0.92617830  1
  C  C147  1  0.65032594  0.53601715  0.86450192  1
