# generated using pymatgen
data_Zn2H8C17O10
_symmetry_space_group_name_H-M   'P 1'
_cell_length_a   30.82658579
_cell_length_b   13.02255408
_cell_length_c   9.54670925
_cell_angle_alpha   90.00000000
_cell_angle_beta   90.00000000
_cell_angle_gamma   90.00000000
_symmetry_Int_Tables_number   1
_chemical_formula_structural   Zn2H8C17O10
_chemical_formula_sum   'Zn16 H64 C136 O80'
_cell_volume   3832.43936833
_cell_formula_units_Z   8
loop_
 _symmetry_equiv_pos_site_id
 _symmetry_equiv_pos_as_xyz
  1  'x, y, z'
loop_
 _atom_site_type_symbol
 _atom_site_label
 _atom_site_symmetry_multiplicity
 _atom_site_fract_x
 _atom_site_fract_y
 _atom_site_fract_z
 _atom_site_occupancy
  O  O0  1  0.13635104  0.08501594  0.49644569  1
  C  C1  1  0.11267094  0.32447981  0.10914278  1
  C  C2  1  0.04378165  0.10820397  0.24059806  1
  O  O3  1  0.22216656  0.39373923  0.37955653  1
  H  H4  1  0.15340667  0.23178331  0.33082765  1
  C  C5  1  0.09589102  0.23029970  0.18380068  1
  C  C6  1  0.12221870  0.19638834  0.29810639  1
  O  O7  1  0.14863556  0.36367625  0.13959034  1
  C  C8  1  0.11039458  0.11686325  0.38668490  1
  C  C9  1  0.06794906  0.07940278  0.35667441  1
  C  C10  1  0.05633441  0.18465262  0.14908185  1
  Zn  Zn11  1  0.19260875  0.46718561  0.04926886  1
  H  H12  1  0.09562350  0.01568748  0.14768628  1
  H  H13  1  0.03722570  0.20162692  0.05897127  1
  H  H14  1  0.05484540  0.01914777  0.42386877  1
  O  O15  1  0.08860326  0.36574418  0.01820168  1
  O  O16  1  0.01155089  0.48418090  0.22445341  1
  C  C17  1  0.00134112  0.05829138  0.21045351  1
  C  C18  1  0.24911526  0.43212980  0.29266462  1
  C  C19  1  0.12589321  0.00484604  0.08617554  1
  H  H20  1  0.04333430  0.21823315  0.55663005  1
  C  C21  1  0.07207653  0.09122874  0.86344314  1
  C  C22  1  0.11521679  0.12192115  0.88881530  1
  H  H23  1  0.15793959  0.24209852  0.81033683  1
  O  O24  1  0.22696812  0.40642624  0.88446710  1
  H  H25  1  0.09376750  0.02881217  0.64100089  1
  C  C26  1  0.06142369  0.20101226  0.65412153  1
  C  C27  1  0.12596743  0.20218860  0.79684252  1
  C  C28  1  0.10082028  0.23913567  0.68555004  1
  C  C29  1  0.12130356  0.32550718  0.60800694  1
  O  O30  1  0.15767506  0.35802571  0.64027867  1
  C  C31  1  0.04773244  0.12438536  0.75196745  1
  Zn  Zn32  1  0.19127955  0.48452119  0.53340115  1
  H  H33  1  0.05980516  0.02452974  0.93241776  1
  O  O34  1  0.09484047  0.37050059  0.52407160  1
  O  O35  1  0.14282615  0.08781162  0.98928447  1
  C  C36  1  0.00566948  0.07433285  0.71434008  1
  O  O37  1  0.01097925  0.49327376  0.69632922  1
  C  C38  1  0.19912891  0.88952462  0.24241609  1
  C  C39  1  0.13776871  0.65949213  0.12408253  1
  C  C40  1  0.17571038  0.91854993  0.35878453  1
  H  H41  1  0.09676145  0.74594456  0.33150563  1
  O  O42  1  0.10105527  0.62201482  0.14572566  1
  C  C43  1  0.18932197  0.80145422  0.16080611  1
  C  C44  1  0.13427773  0.87877770  0.38973944  1
  C  C45  1  0.12520098  0.79024388  0.31173259  1
  C  C46  1  0.15145815  0.75437433  0.20173827  1
  H  H47  1  0.18679582  0.97901330  0.42480213  1
  O  O48  1  0.02586939  0.60162729  0.38333661  1
  O  O49  1  0.16385978  0.62592600  0.03921816  1
  H  H50  1  0.20999200  0.76747956  0.08194318  1
  Zn  Zn51  1  0.05552939  0.50717782  0.04517987  1
  O  O52  1  0.10781057  0.91503325  0.49141256  1
  H  H53  1  0.15174992  0.98601134  0.16145264  1
  C  C54  1  0.00080864  0.55944133  0.29741990  1
  C  C55  1  0.24213672  0.93582555  0.21124054  1
  O  O56  1  0.23757898  0.50425624  0.20987693  1
  Zn  Zn57  1  0.05850247  0.50629567  0.54661712  1
  O  O58  1  0.15818150  0.61629046  0.52016302  1
  C  C59  1  0.15644336  0.73851978  0.70265276  1
  O  O60  1  0.09881892  0.62788473  0.64504368  1
  H  H61  1  0.09822230  0.75159392  0.82591505  1
  C  C62  1  0.13116402  0.78696485  0.80424505  1
  C  C63  1  0.18111197  0.91762248  0.85448154  1
  C  C64  1  0.19582683  0.78733475  0.66231510  1
  C  C65  1  0.14160203  0.87139691  0.89159394  1
  C  C66  1  0.13585722  0.65488027  0.61498521  1
  C  C67  1  0.20410654  0.87151942  0.74307281  1
  O  O68  1  0.02427263  0.58704287  0.88783114  1
  H  H69  1  0.21797828  0.76816164  0.57455339  1
  H  H70  1  0.14666974  0.96979711  0.65809319  1
  H  H71  1  0.19560059  0.98058797  0.91565526  1
  O  O72  1  0.11566876  0.90202289  0.98949709  1
  C  C73  1  0.00034708  0.55989821  0.78541949  1
  C  C74  1  0.24666496  0.92453233  0.70864166  1
  C  C75  1  0.12273812  0.99978828  0.58115238  1
  O  O76  1  0.24015787  0.50811483  0.70891554  1
  H  H77  1  0.33996995  0.47058091  0.40078396  1
  H  H78  1  0.40583690  0.27272145  0.21988238  1
  Zn  Zn79  1  0.44702389  0.02089856  0.45938769  1
  C  C80  1  0.31725735  0.41664542  0.15824601  1
  C  C81  1  0.29097157  0.38006143  0.27122511  1
  O  O82  1  0.39894736  0.13699491  0.39504472  1
  C  C83  1  0.37328947  0.30037226  0.23121422  1
  C  C84  1  0.34548624  0.25751336  0.32989017  1
  O  O85  1  0.47661470  0.10710207  0.12096845  1
  C  C86  1  0.35821026  0.37651906  0.13596619  1
  C  C87  1  0.30416579  0.29673760  0.35142834  1
  H  H88  1  0.30683268  0.48226439  0.09010140  1
  C  C89  1  0.36055670  0.16598464  0.40802044  1
  H  H90  1  0.28254552  0.26568548  0.42881547  1
  O  O91  1  0.49490387  0.00174696  0.29329218  1
  O  O92  1  0.33461317  0.13036556  0.49443930  1
  O  O93  1  0.38452203  0.41516619  0.03796234  1
  Zn  Zn94  1  0.43899166  0.02149479  0.97938402  1
  O  O95  1  0.38953510  0.41892925  0.54476038  1
  H  H96  1  0.28236352  0.25223432  0.90829276  1
  H  H97  1  0.40896264  0.25726994  0.71672835  1
  O  O98  1  0.47584615  0.09392723  0.62326010  1
  C  C99  1  0.36405801  0.38407178  0.64234018  1
  O  O100  1  0.39948580  0.12828674  0.87700854  1
  C  C101  1  0.29405948  0.38135638  0.76590107  1
  C  C102  1  0.30503169  0.29062587  0.83685504  1
  C  C103  1  0.34727506  0.25320420  0.81651014  1
  C  C104  1  0.37671810  0.29715560  0.72227471  1
  C  C105  1  0.32197053  0.42363062  0.66779100  1
  C  C106  1  0.36105137  0.15932875  0.89516040  1
  H  H107  1  0.31317671  0.49336582  0.60923565  1
  C  C108  1  0.25219451  0.43791941  0.78527863  1
  C  C109  1  0.49785151  0.06492542  0.72992855  1
  H  H110  1  0.34106622  0.49725638  0.88073497  1
  O  O111  1  0.33510178  0.11801565  0.97785243  1
  H  H112  1  0.46598044  0.73161275  0.42982613  1
  C  C113  1  0.38867162  0.85373030  0.38219496  1
  H  H114  1  0.39325818  0.51204444  0.34916017  1
  H  H115  1  0.34774835  0.75282993  0.17958141  1
  O  O116  1  0.35337780  0.89528405  0.35132816  1
  C  C117  1  0.38856785  0.62682458  0.13142775  1
  C  C118  1  0.42785729  0.57965082  0.16148654  1
  C  C119  1  0.45305958  0.62313418  0.26889347  1
  C  C120  1  0.44263324  0.70432288  0.35442292  1
  C  C121  1  0.40503448  0.75920022  0.31103609  1
  C  C122  1  0.37718838  0.71102733  0.21631762  1
  O  O123  1  0.26040545  0.90770618  0.09841244  1
  H  H124  1  0.43591320  0.50688991  0.09805007  1
  Zn  Zn125  1  0.30389866  0.97994464  0.46330066  1
  O  O126  1  0.36054927  0.58993562  0.02374240  1
  C  C127  1  0.49761996  0.58004606  0.29958671  1
  C  C128  1  0.37003836  0.50927459  0.44022560  1
  O  O129  1  0.25949757  0.99585678  0.29659394  1
  O  O130  1  0.40538483  0.88054501  0.00167939  1
  O  O131  1  0.41239326  0.88353818  0.47751060  1
  O  O132  1  0.48353266  0.99574260  0.80666950  1
  H  H133  1  0.34232266  0.75735585  0.68382842  1
  C  C134  1  0.45409356  0.63480810  0.76891805  1
  C  C135  1  0.38459567  0.84322052  0.90065222  1
  C  C136  1  0.43008980  0.60221608  0.65169152  1
  C  C137  1  0.38872642  0.63767599  0.62381084  1
  C  C138  1  0.37391429  0.71965158  0.70770583  1
  C  C139  1  0.40081720  0.75291487  0.81822427  1
  O  O140  1  0.26154171  0.99519927  0.78512444  1
  O  O141  1  0.26506215  0.89414149  0.59907373  1
  C  C142  1  0.44110271  0.71363006  0.85597927  1
  H  H143  1  0.45894050  0.74138956  0.94865308  1
  Zn  Zn144  1  0.30312844  0.97407106  0.96071041  1
  O  O145  1  0.34647672  0.87467796  0.87563328  1
  H  H146  1  0.44523868  0.54949273  0.57830799  1
  H  H147  1  0.39991999  0.51726290  0.87117681  1
  O  O148  1  0.36219843  0.59855671  0.50182391  1
  C  C149  1  0.49712117  0.58191427  0.80028915  1
  C  C150  1  0.37225199  0.50582031  0.94302633  1
  H  H151  1  0.53487252  0.24642601  0.07414719  1
  C  C152  1  0.61160610  0.34033222  0.07742380  1
  O  O153  1  0.72915435  0.40487421  0.37024947  1
  O  O154  1  0.64174267  0.08884615  0.45020505  1
  C  C155  1  0.57240206  0.09100635  0.33995465  1
  H  H156  1  0.65857001  0.24197029  0.27444198  1
  C  C157  1  0.59861181  0.25366481  0.17136954  1
  H  H158  1  0.60427435  0.03081196  0.14746441  1
  C  C159  1  0.61429889  0.13100921  0.36074129  1
  C  C160  1  0.62608705  0.21340370  0.27098708  1
  C  C161  1  0.54529213  0.12861579  0.23410556  1
  C  C162  1  0.55705757  0.21562934  0.15584282  1
  O  O163  1  0.65164512  0.35450726  0.07722196  1
  H  H164  1  0.56301978  0.03260541  0.41428959  1
  Zn  Zn165  1  0.69736647  0.47359437  0.02116423  1
  C  C166  1  0.62626760  0.00110684  0.06210349  1
  C  C167  1  0.50296753  0.07429778  0.21184501  1
  C  C168  1  0.54095708  0.11351303  0.74539070  1
  O  O169  1  0.64324957  0.36305644  0.61269513  1
  C  C170  1  0.55069774  0.20298585  0.67120304  1
  H  H171  1  0.65068288  0.23879713  0.79266775  1
  C  C172  1  0.60430802  0.33709480  0.60437652  1
  H  H173  1  0.52726982  0.24170611  0.59700165  1
  C  C174  1  0.61018631  0.12082360  0.87306486  1
  C  C175  1  0.61994061  0.20304593  0.78578891  1
  C  C176  1  0.59116513  0.24484797  0.69188058  1
  H  H177  1  0.59841100  0.04108850  0.61601583  1
  C  C178  1  0.56991242  0.07744721  0.84826304  1
  O  O179  1  0.72989490  0.39441682  0.87183831  1
  Zn  Zn180  1  0.68908572  0.46674803  0.51802215  1
  O  O181  1  0.57663333  0.38128275  0.52735759  1
  H  H182  1  0.56129828  0.01008830  0.90496055  1
  C  C183  1  0.74894489  0.42265826  0.76133906  1
  O  O184  1  0.63822408  0.08543059  0.98083679  1
  C  C185  1  0.62390485  0.00987378  0.54371267  1
  O  O186  1  0.73595770  0.49602957  0.68869218  1
  O  O187  1  0.58529685  0.38268817  0.99327240  1
  C  C188  1  0.63637279  0.64650243  0.11073139  1
  C  C189  1  0.63923545  0.87614942  0.35538911  1
  O  O190  1  0.61091227  0.91613930  0.44530206  1
  H  H191  1  0.59536429  0.76099985  0.28597101  1
  C  C192  1  0.65405220  0.74140783  0.17784904  1
  C  C193  1  0.74865592  0.92322995  0.18260426  1
  C  C194  1  0.68011730  0.91780253  0.32291653  1
  C  C195  1  0.62695546  0.78941529  0.27187533  1
  C  C196  1  0.69622804  0.78320058  0.15137386  1
  O  O197  1  0.52275483  0.62146925  0.38791139  1
  C  C198  1  0.70700850  0.87027773  0.22431277  1
  O  O199  1  0.60230041  0.60564667  0.15476831  1
  H  H200  1  0.71521450  0.75013554  0.06383779  1
  H  H201  1  0.68986950  0.98566551  0.38597189  1
  O  O202  1  0.65721540  0.60432961  0.01373235  1
  H  H203  1  0.65230704  0.95773552  0.11562403  1
  O  O204  1  0.50961342  0.50641854  0.22468718  1
  O  O205  1  0.74379452  0.50953134  0.19578612  1
  Zn  Zn206  1  0.55424274  0.52346393  0.03743894  1
  O  O207  1  0.66151700  0.61973542  0.48755067  1
  H  H208  1  0.59719662  0.75793097  0.77381708  1
  C  C209  1  0.69849179  0.79462852  0.63765798  1
  C  C210  1  0.68213805  0.90985465  0.83617204  1
  C  C211  1  0.63066729  0.79339035  0.76919461  1
  C  C212  1  0.63942553  0.66875567  0.57544266  1
  O  O213  1  0.61209856  0.90699187  0.95747455  1
  C  C214  1  0.65793730  0.75340388  0.66361226  1
  C  C215  1  0.70968941  0.87539447  0.72747400  1
  C  C216  1  0.63971551  0.87347983  0.86378485  1
  H  H217  1  0.71770508  0.76498752  0.54941436  1
  O  O218  1  0.51859590  0.60854780  0.90726417  1
  Zn  Zn219  1  0.55636251  0.53360311  0.54160216  1
  O  O220  1  0.60111669  0.64151316  0.60933386  1
  H  H221  1  0.69125323  0.98433348  0.89165713  1
  O  O222  1  0.50789334  0.51621972  0.71456042  1
  H  H223  1  0.64998944  0.98181799  0.61635772  1
  C  C224  1  0.86733153  0.37885389  0.12916115  1
  H  H225  1  0.90189591  0.24596742  0.17721109  1
  H  H226  1  0.81426021  0.49288673  0.09472817  1
  O  O227  1  0.89705815  0.13166205  0.37633993  1
  H  H228  1  0.78677413  0.27856233  0.43679553  1
  C  C229  1  0.79841322  0.38397111  0.25428357  1
  C  C230  1  0.87300744  0.28867888  0.20739207  1
  C  C231  1  0.84440889  0.25193873  0.30847078  1
  C  C232  1  0.80621769  0.30033357  0.34332412  1
  C  C233  1  0.85945244  0.16349239  0.39911821  1
  C  C234  1  0.82543013  0.42260240  0.15342738  1
  O  O235  1  0.98540436  0.08758465  0.09496497  1
  C  C236  1  0.75453327  0.43370570  0.27069939  1
  Zn  Zn237  1  0.94205134  0.03863350  0.47684600  1
  H  H238  1  0.85430940  0.48475212  0.35356469  1
  O  O239  1  0.89570107  0.41047208  0.03178360  1
  O  O240  1  0.83387721  0.11700306  0.47715574  1
  C  C241  1  0.87796279  0.49347705  0.93811410  1
  C  C242  1  0.82127495  0.41222294  0.64570761  1
  O  O243  1  0.90550904  0.14637636  0.88988766  1
  C  C244  1  0.86421128  0.37721490  0.62193419  1
  H  H245  1  0.90893958  0.26021038  0.72024610  1
  O  O246  1  0.98175465  0.11560092  0.61654636  1
  H  H247  1  0.78413458  0.26107837  0.91152703  1
  C  C248  1  0.79249609  0.37058523  0.74289021  1
  C  C249  1  0.80517336  0.29023198  0.82529777  1
  C  C250  1  0.84800336  0.25145283  0.81050867  1
  C  C251  1  0.87677376  0.29764300  0.71203011  1
  C  C252  1  0.86510323  0.16915358  0.89758477  1
  Zn  Zn253  1  0.94327842  0.02591892  0.95352233  1
  O  O254  1  0.89111826  0.42154150  0.52761609  1
  O  O255  1  0.84018232  0.12790158  0.98249529  1
  H  H256  1  0.84965442  0.46512828  0.87314363  1
  O  O257  1  0.99177953  0.00000028  0.77995497  1
  O  O258  1  0.76407501  0.00244252  0.77719869  1
  H  H259  1  0.80764593  0.46919244  0.57556730  1
  Zn  Zn260  1  0.80537491  0.96690758  0.43689893  1
  O  O261  1  0.85705410  0.88134479  0.35981351  1
  C  C262  1  0.89383281  0.84808935  0.39123279  1
  H  H263  1  0.85172511  0.74734720  0.19776052  1
  C  C264  1  0.93304138  0.57760597  0.16217634  1
  C  C265  1  0.89350776  0.62378238  0.12680075  1
  O  O266  1  0.77194839  0.88951296  0.08655673  1
  C  C267  1  0.95865075  0.61758778  0.26834895  1
  C  C268  1  0.95099625  0.71045902  0.33985361  1
  C  C269  1  0.91153866  0.75682157  0.31282499  1
  C  C270  1  0.88422630  0.71476913  0.20823889  1
  H  H271  1  0.94408113  0.50845471  0.11253675  1
  H  H272  1  0.97476851  0.73584318  0.41754947  1
  O  O273  1  0.91735289  0.88841865  0.48256597  1
  H  H274  1  0.90670393  0.54187761  0.37939089  1
  C  C275  1  0.87707640  0.51595315  0.43662994  1
  O  O276  1  0.76097338  0.99020317  0.27061579  1
  O  O277  1  0.98389260  0.99507113  0.28300517  1
  O  O278  1  0.86701833  0.58844449  0.03180617  1
  O  O279  1  0.86233536  0.59936018  0.53292533  1
  H  H280  1  0.84748902  0.74413746  0.70722676  1
  C  C281  1  0.93137234  0.58859565  0.66180527  1
  C  C282  1  0.94804212  0.70819515  0.84847694  1
  H  H283  1  0.97164517  0.74256941  0.92317447  1
  C  C284  1  0.88877930  0.62648330  0.63383430  1
  C  C285  1  0.87889736  0.70986297  0.72365238  1
  C  C286  1  0.90779314  0.74904020  0.82208538  1
  C  C287  1  0.89143273  0.84341113  0.89752833  1
  O  O288  1  0.85245052  0.87153204  0.87752054  1
  C  C289  1  0.95756459  0.62080183  0.76919122  1
  O  O290  1  0.91407377  0.88349891  0.98977899  1
  O  O291  1  0.77383483  0.89426952  0.60229480  1
  H  H292  1  0.94447695  0.52490635  0.60068289  1
  Zn  Zn293  1  0.80784150  0.98916688  0.96318516  1
  H  H294  1  0.90652821  0.51190281  0.86689816  1
  C  C295  1  0.75042870  0.93208850  0.70049419  1
