# generated using pymatgen
data_CuH18(C15O2)2
_symmetry_space_group_name_H-M   'P 1'
_cell_length_a   128.97915840
_cell_length_b   20.93181686
_cell_length_c   18.67135945
_cell_angle_alpha   90.00000000
_cell_angle_beta   90.00000000
_cell_angle_gamma   90.00000000
_symmetry_Int_Tables_number   1
_chemical_formula_structural   CuH18(C15O2)2
_chemical_formula_sum   'Cu12 H216 C360 O48'
_cell_volume   50408.34103077
_cell_formula_units_Z   12
loop_
 _symmetry_equiv_pos_site_id
 _symmetry_equiv_pos_as_xyz
  1  'x, y, z'
loop_
 _atom_site_type_symbol
 _atom_site_label
 _atom_site_symmetry_multiplicity
 _atom_site_fract_x
 _atom_site_fract_y
 _atom_site_fract_z
 _atom_site_occupancy
  C  C0  1  0.42119949  0.05814244  0.18489069  1
  O  O1  1  0.41328260  0.03574717  0.16337504  1
  C  C2  1  0.42714820  0.02089460  0.23821663  1
  O  O3  1  0.42454287  0.11509175  0.16295863  1
  C  C4  1  0.43638705  0.03980603  0.27316659  1
  Cu  Cu5  1  0.43498966  0.12648720  0.09956917  1
  O  O6  1  0.44124718  0.29498099  0.09602267  1
  H  H7  1  0.43993223  0.08511241  0.25958915  1
  Cu  Cu8  1  0.44614421  0.04498738  0.03301478  1
  H  H9  1  0.49979280  0.24429755  0.17309220  1
  C  C10  1  0.48392966  0.48957750  0.18581493  1
  H  H11  1  0.49871584  0.38324945  0.47065728  1
  H  H12  1  0.44675980  0.45899897  0.48215196  1
  O  O13  1  0.44393841  0.13330419  0.02618142  1
  H  H14  1  0.46933989  0.03251589  0.09577877  1
  H  H15  1  0.44526467  0.24279314  0.19339861  1
  C  C16  1  0.49943325  0.43315290  0.45278112  1
  H  H17  1  0.48109115  0.33250097  0.26902706  1
  C  C18  1  0.49983237  0.42933708  0.22762156  1
  H  H19  1  0.44805251  0.01181230  0.34957168  1
  C  C20  1  0.47105209  0.01456139  0.36812782  1
  C  C21  1  0.47997639  0.25248173  0.10814983  1
  C  C22  1  0.48629290  0.14773181  0.45559269  1
  H  H23  1  0.49454105  0.16545588  0.45184396  1
  C  C24  1  0.46459754  0.09491989  0.45869750  1
  C  C25  1  0.48138792  0.30593498  0.06019481  1
  O  O26  1  0.45475531  0.07932086  0.45494360  1
  C  C27  1  0.48131357  0.42424808  0.40445673  1
  H  H28  1  0.46292019  0.11647271  0.33736354  1
  C  C29  1  0.46051228  0.16479131  0.32404761  1
  H  H30  1  0.47606424  0.22219595  0.22132586  1
  C  C31  1  0.48064494  0.32383922  0.21091046  1
  C  C32  1  0.45478783  0.17681268  0.25769716  1
  H  H33  1  0.46347737  0.39560664  0.27689423  1
  C  C34  1  0.46802826  0.39049897  0.32586703  1
  C  C35  1  0.47860447  0.37639044  0.45826598  1
  C  C36  1  0.47852853  0.26176367  0.18499797  1
  H  H37  1  0.48876482  0.07855599  0.37331889  1
  C  C38  1  0.48971747  0.43256533  0.19465484  1
  H  H39  1  0.44912080  0.34032294  0.27696087  1
  C  C40  1  0.48407436  0.36547998  0.08633816  1
  H  H41  1  0.46896212  0.21291232  0.40942354  1
  C  C42  1  0.49089385  0.46192024  0.42034964  1
  C  C43  1  0.47923290  0.18706167  0.07676875  1
  H  H44  1  0.47078775  0.28528467  0.47204794  1
  C  C45  1  0.45055879  0.23983915  0.24022156  1
  H  H46  1  0.46871869  0.14014936  0.15584634  1
  C  C47  1  0.47331534  0.07490811  0.07289543  1
  C  C48  1  0.47591663  0.43412036  0.33897464  1
  C  C49  1  0.47278850  0.07039313  0.41101972  1
  O  O50  1  0.45264121  0.08092925  0.17091573  1
  H  H51  1  0.48555029  0.40561873  0.05023905  1
  C  C52  1  0.46627106  0.33392195  0.36995103  1
  C  C53  1  0.45258680  0.29250479  0.28444261  1
  C  C54  1  0.48427457  0.37225874  0.16146328  1
  H  H55  1  0.47795641  0.47094338  0.30193768  1
  C  C56  1  0.48281300  0.09943788  0.41065954  1
  C  C57  1  0.47322678  0.13548487  0.10564655  1
  C  C58  1  0.46017049  0.27976905  0.33842949  1
  H  H59  1  0.45620846  0.45819870  0.05820803  1
  C  C60  1  0.45328676  0.12604261  0.20709594  1
  C  C61  1  0.46336414  0.21705673  0.36332949  1
  C  C62  1  0.47189245  0.32888810  0.43714219  1
  C  C63  1  0.44463431  0.30680634  0.03997253  1
  H  H64  1  0.47608736  0.49068970  0.16176677  1
  H  H65  1  0.44875350  0.16527134  0.01739063  1
  H  H66  1  0.49746045  0.18197451  0.28901211  1
  O  O67  1  0.44415363  0.43285732  0.28392600  1
  O  O68  1  0.45232051  0.45660033  0.25844529  1
  H  H69  1  0.45361436  0.05348516  0.49989317  1
  H  H70  1  0.48734050  0.27307375  0.49873518  1
  C  C71  1  0.47831677  0.06974094  0.00381513  1
  C  C72  1  0.49900922  0.00085328  0.30295604  1
  C  C73  1  0.48536731  0.17688921  0.01201043  1
  H  H74  1  0.46997952  0.48988875  0.44894658  1
  H  H75  1  0.48282028  0.37267456  0.50887051  1
  H  H76  1  0.44010249  0.28867248  0.74804333  1
  H  H77  1  0.43897825  0.39916190  0.70415517  1
  C  C78  1  0.44339329  0.36165653  0.67340578  1
  C  C79  1  0.44331703  0.29877051  0.69602297  1
  C  C80  1  0.44851403  0.32805961  0.97318817  1
  C  C81  1  0.44673465  0.39652863  0.95347648  1
  C  C82  1  0.48520078  0.11930953  0.97417742  1
  C  C83  1  0.44864799  0.38181762  0.60646283  1
  C  C84  1  0.44770125  0.24707564  0.64763556  1
  C  C85  1  0.44819808  0.48663856  0.53152237  1
  C  C86  1  0.44954335  0.45426669  0.59838395  1
  H  H87  1  0.44931179  0.46561505  0.87601356  1
  C  C88  1  0.45157395  0.41552380  0.89171330  1
  C  C89  1  0.45197118  0.33340311  0.55711947  1
  C  C90  1  0.44926422  0.18382489  0.67484583  1
  O  O91  1  0.45102534  0.13047122  0.68897889  1
  C  C92  1  0.45242056  0.26923855  0.58152012  1
  H  H93  1  0.47493809  0.36879690  0.62466300  1
  C  C94  1  0.45288179  0.28088583  0.92490014  1
  H  H95  1  0.45200886  0.22936728  0.93586261  1
  C  C96  1  0.49002799  0.35129644  0.79271248  1
  H  H97  1  0.48129254  0.00697453  0.83120669  1
  C  C98  1  0.48113967  0.18453085  0.64615460  1
  C  C99  1  0.48189601  0.01708095  0.77405797  1
  H  H100  1  0.48558881  0.03404802  0.56421100  1
  C  C101  1  0.47325637  0.00538719  0.73110315  1
  H  H102  1  0.48999249  0.10876424  0.92798968  1
  H  H103  1  0.46408679  0.48685048  0.85094787  1
  C  C104  1  0.48237028  0.20300601  0.57447212  1
  C  C105  1  0.49142920  0.30435051  0.60199460  1
  H  H106  1  0.49615901  0.17316376  0.83226931  1
  C  C107  1  0.47453258  0.01093253  0.65450107  1
  C  C108  1  0.47257835  0.39448239  0.67390966  1
  C  C109  1  0.47620152  0.48663372  0.99764877  1
  H  H110  1  0.48150035  0.34729194  0.80037856  1
  C  C111  1  0.47635829  0.01154735  0.96354503  1
  H  H112  1  0.46011628  0.26752902  0.81960573  1
  H  H113  1  0.49948725  0.15703428  0.70064067  1
  C  C114  1  0.49155001  0.03651361  0.74371288  1
  H  H115  1  0.46495890  0.40778218  0.97396056  1
  C  C116  1  0.45294959  0.48936925  0.65976857  1
  H  H117  1  0.45446540  0.34876549  0.50291678  1
  H  H118  1  0.44144392  0.42897393  0.98280938  1
  C  C119  1  0.49008714  0.28436241  0.67457283  1
  C  C120  1  0.46439834  0.39930488  0.79053071  1
  C  C121  1  0.45795143  0.30175202  0.86183239  1
  C  C122  1  0.47960143  0.39856498  0.91539367  1
  C  C123  1  0.47316132  0.42760096  0.96368797  1
  C  C124  1  0.48437496  0.03309261  0.62294383  1
  C  C125  1  0.49917589  0.01960583  0.86835281  1
  H  H126  1  0.45425557  0.45834930  0.70790606  1
  H  H127  1  0.46314956  0.31726650  0.71250779  1
  C  C128  1  0.46656394  0.36463758  0.72421203  1
  H  H129  1  0.49000565  0.21807339  0.99117814  1
  H  H130  1  0.48498617  0.21760158  0.75503102  1
  C  C131  1  0.48485934  0.22793686  0.69795553  1
  H  H132  1  0.47732463  0.14050429  0.66063477  1
  H  H133  1  0.46428633  0.15405270  0.55789649  1
  C  C134  1  0.46667283  0.46520060  0.80022261  1
  C  C135  1  0.49017994  0.41885667  0.90414672  1
  C  C136  1  0.49540725  0.32084425  0.73714717  1
  C  C137  1  0.46886679  0.13771487  0.51133146  1
  H  H138  1  0.45613514  0.23533185  0.54586842  1
  C  C139  1  0.48668070  0.26088651  0.55380446  1
  C  C140  1  0.47561731  0.46075766  0.69040789  1
  C  C141  1  0.45850964  0.37046298  0.85090568  1
  H  H142  1  0.47647852  0.35487501  0.89262994  1
  C  C143  1  0.49280791  0.04518600  0.66672958  1
  C  C144  1  0.49572308  0.38661409  0.84346533  1
  C  C145  1  0.49388726  0.47370861  0.94068943  1
  O  O146  1  0.49570419  0.35677701  0.57762180  1
  C  C147  1  0.47893781  0.15970462  0.51220065  1
  C  C148  1  0.47260376  0.49823612  0.74918803  1
  H  H149  1  0.48167214  0.29992754  0.99903486  1
  O  O150  1  0.42361874  0.69266401  0.17234013  1
  C  C151  1  0.42771063  0.73247670  0.21358386  1
  O  O152  1  0.42518160  0.79053582  0.21438969  1
  Cu  Cu153  1  0.42524880  0.70681716  0.07074091  1
  Cu  Cu154  1  0.42885991  0.85222747  0.14131182  1
  C  C155  1  0.43510114  0.69992222  0.26161127  1
  O  O156  1  0.43183513  0.79186215  0.06767666  1
  H  H157  1  0.43432366  0.60881503  0.20963407  1
  H  H158  1  0.42340208  0.87459421  0.32130498  1
  C  C159  1  0.42676259  0.91999723  0.30212047  1
  C  C160  1  0.42199672  0.96335282  0.25913805  1
  H  H161  1  0.42808974  0.85372028  0.41959892  1
  H  H162  1  0.41409737  0.95579992  0.24075353  1
  H  H163  1  0.41587215  0.93366283  0.10740728  1
  O  O164  1  0.41212310  0.90339629  0.08230558  1
  H  H165  1  0.40619762  0.92802725  0.07167810  1
  O  O166  1  0.43669498  0.65004411  0.06265110  1
  C  C167  1  0.43658298  0.85193432  0.42470448  1
  H  H168  1  0.43646860  0.79090363  0.32126615  1
  C  C169  1  0.43645965  0.93673444  0.33509383  1
  Cu  Cu170  1  0.42259575  0.82968316  0.01251388  1
  O  O171  1  0.43630084  0.93155500  0.12807484  1
  C  C172  1  0.43810020  0.63489862  0.25445226  1
  C  C173  1  0.43924765  0.73880887  0.31458086  1
  C  C174  1  0.44083367  0.99910875  0.32374380  1
  Cu  Cu175  1  0.44498307  0.77828013  0.11223166  1
  H  H176  1  0.44533012  0.87699420  0.22816315  1
  C  C177  1  0.44269625  0.89591584  0.38638762  1
  C  C178  1  0.44555760  0.60762787  0.29604251  1
  H  H179  1  0.44322033  0.54277732  0.07508541  1
  C  C180  1  0.44504062  0.92436765  0.09841455  1
  C  C181  1  0.44692756  0.71309438  0.35776248  1
  H  H182  1  0.44837370  0.55845714  0.28359039  1
  C  C183  1  0.44565930  0.66746509  0.06240452  1
  O  O184  1  0.44794617  0.72436054  0.03969547  1
  O  O185  1  0.44674508  0.95628014  0.04015045  1
  H  H186  1  0.49780671  0.97892188  0.24839578  1
  H  H187  1  0.45006449  0.57681559  0.47574825  1
  C  C188  1  0.49711043  0.93973466  0.48205898  1
  C  C189  1  0.45183320  0.85658142  0.19802543  1
  C  C190  1  0.44122310  0.81286559  0.47963130  1
  C  C191  1  0.45306829  0.88620022  0.12928198  1
  H  H192  1  0.46779810  0.57822013  0.25230050  1
  O  O193  1  0.47113849  0.96994811  0.32864531  1
  C  C194  1  0.45094569  0.65035638  0.34439299  1
  O  O195  1  0.48169526  0.61145836  0.01802996  1
  O  O196  1  0.46976524  0.84367360  0.44223264  1
  H  H197  1  0.49441287  0.91506793  0.35851864  1
  C  C198  1  0.45201912  0.81125169  0.48244702  1
  H  H199  1  0.45015305  0.74134948  0.40076127  1
  C  C200  1  0.45387721  0.89174630  0.39241273  1
  H  H201  1  0.49991268  0.50336649  0.13856341  1
  H  H202  1  0.49549796  0.63274300  0.02642041  1
  C  C203  1  0.45868549  0.50948288  0.05373804  1
  C  C204  1  0.45870809  0.80943272  0.22087125  1
  C  C205  1  0.49103261  0.70449423  0.30922711  1
  C  C206  1  0.49132466  0.52499283  0.39019140  1
  C  C207  1  0.47249120  0.59695638  0.02947423  1
  C  C208  1  0.46700434  0.79031147  0.17587723  1
  C  C209  1  0.46788578  0.67622836  0.22070982  1
  C  C210  1  0.45902316  0.85090655  0.44047161  1
  C  C211  1  0.48791263  0.65797196  0.16730665  1
  C  C212  1  0.49155232  0.64700117  0.34454093  1
  H  H213  1  0.48423006  0.61784244  0.34737988  1
  H  H214  1  0.46019926  0.67703990  0.24322993  1
  C  C215  1  0.45437813  0.62080565  0.05728308  1
  H  H216  1  0.47219456  0.88696234  0.42215453  1
  C  C217  1  0.45136842  0.55718564  0.06576743  1
  H  H218  1  0.49040504  0.54019782  0.02462081  1
  C  C219  1  0.49089322  0.82414463  0.24043609  1
  H  H220  1  0.46477024  0.72877081  0.41589721  1
  C  C221  1  0.48222791  0.60647730  0.19989250  1
  C  C222  1  0.45997936  0.63006065  0.38872412  1
  C  C223  1  0.46250989  0.87529743  0.09073421  1
  H  H224  1  0.48260883  0.88812201  0.17016299  1
  C  C225  1  0.48907074  0.54768798  0.20792038  1
  C  C226  1  0.49745108  0.96331634  0.36396882  1
  H  H227  1  0.49534330  0.64549324  0.14134821  1
  H  H228  1  0.46675180  0.69076105  0.04095395  1
  C  C229  1  0.48331591  0.71792262  0.16317892  1
  H  H230  1  0.46386377  0.90492142  0.04257577  1
  C  C231  1  0.47298324  0.73141783  0.18997394  1
  C  C232  1  0.46457740  0.63992315  0.04357989  1
  C  C233  1  0.46950818  0.82941252  0.11100546  1
  C  C234  1  0.46614078  0.67785174  0.42159794  1
  H  H235  1  0.45865642  0.78948668  0.27546491  1
  C  C236  1  0.49019413  0.86978137  0.18875582  1
  H  H237  1  0.45892601  0.92254383  0.36076357  1
  C  C238  1  0.49946588  0.54813331  0.23392416  1
  H  H239  1  0.48399653  0.72105455  0.28335277  1
  C  C240  1  0.46867520  0.52700640  0.03050900  1
  C  C241  1  0.46880842  0.54086218  0.44004403  1
  H  H242  1  0.47609956  0.82289424  0.07662252  1
  C  C243  1  0.47482164  0.58890183  0.47719006  1
  H  H244  1  0.48700580  0.75772556  0.13456209  1
  H  H245  1  0.48505284  0.54049552  0.35766270  1
  C  C246  1  0.47409123  0.65573485  0.46748753  1
  H  H247  1  0.48349613  0.80135465  0.26218427  1
  C  C248  1  0.47215640  0.61688422  0.22897526  1
  C  C249  1  0.46107419  0.56266899  0.39083423  1
  H  H250  1  0.45575048  0.53058594  0.36259438  1
  O  O251  1  0.43261284  0.83703078  0.94104383  1
  C  C252  1  0.42653573  0.74174355  0.84406078  1
  C  C253  1  0.42049912  0.70079376  0.89381239  1
  H  H254  1  0.42210211  0.78214686  0.81887543  1
  C  C255  1  0.42422378  0.63940865  0.91423728  1
  C  C256  1  0.41070503  0.71582225  0.93157440  1
  O  O257  1  0.40307670  0.71789173  0.96443412  1
  H  H258  1  0.41953591  0.61062092  0.94925603  1
  C  C259  1  0.43652184  0.72423136  0.82902315  1
  C  C260  1  0.43452390  0.62168977  0.89663794  1
  H  H261  1  0.43613781  0.78850234  0.52036175  1
  H  H262  1  0.43443979  0.86640280  0.90428775  1
  H  H263  1  0.43708569  0.57469996  0.91372080  1
  C  C264  1  0.49909883  0.78461734  0.63092287  1
  H  H265  1  0.44142997  0.75624822  0.79507439  1
  C  C266  1  0.44071203  0.66411356  0.85662408  1
  H  H267  1  0.44378454  0.69194600  0.52731859  1
  H  H268  1  0.49247626  0.99343851  0.88339318  1
  C  C269  1  0.45113551  0.55050727  0.52703565  1
  H  H270  1  0.47304913  0.57816537  0.92415265  1
  C  C271  1  0.49647895  0.68204325  0.69680084  1
  C  C272  1  0.49792399  0.55927296  0.60645315  1
  C  C273  1  0.48722132  0.50359782  0.98910680  1
  H  H274  1  0.46936642  0.51055193  0.56555337  1
  C  C275  1  0.45711444  0.65772931  0.58658931  1
  H  H276  1  0.45464711  0.71664305  0.75181558  1
  C  C277  1  0.45434663  0.58522003  0.58881833  1
  C  C278  1  0.49980587  0.89915577  0.75852466  1
  H  H279  1  0.49598598  0.50447431  0.71045178  1
  H  H280  1  0.48177805  0.76246543  0.85401241  1
  C  C281  1  0.46848507  0.68210415  0.78795489  1
  C  C282  1  0.49340686  0.58554444  0.54380636  1
  C  C283  1  0.49527660  0.84619783  0.79087821  1
  C  C284  1  0.46719991  0.66892864  0.61307366  1
  C  C285  1  0.48292443  0.56740547  0.53157284  1
  H  H286  1  0.47540581  0.54667778  0.75717630  1
  C  C287  1  0.47778797  0.52184788  0.57750525  1
  C  C288  1  0.48648856  0.67991198  0.67041793  1
  O  O289  1  0.45908411  0.98370505  0.56581768  1
  C  C290  1  0.45773822  0.68196616  0.78940604  1
  H  H291  1  0.47182085  0.62793929  0.63185052  1
  H  H292  1  0.48769582  0.82448624  0.77512920  1
  H  H293  1  0.48614199  0.82675894  0.58260987  1
  C  C294  1  0.45111429  0.70532867  0.55013623  1
  C  C295  1  0.47176784  0.72970893  0.59865190  1
  C  C296  1  0.49878566  0.74518997  0.85409819  1
  C  C297  1  0.48261921  0.73072294  0.62677623  1
  H  H298  1  0.49101644  0.55999545  0.85282024  1
  H  H299  1  0.49582449  0.92620568  0.72085655  1
  C  C300  1  0.46606568  0.99339426  0.60476509  1
  O  O301  1  0.49462602  0.90243283  0.52485676  1
  C  C302  1  0.47393767  0.64713045  0.84222114  1
  H  H303  1  0.45293688  0.56776844  0.91981461  1
  H  H304  1  0.47303379  0.71143843  0.75292713  1
  C  C305  1  0.49325768  0.61082356  0.85422763  1
  C  C306  1  0.46652226  0.77990882  0.56210044  1
  H  H307  1  0.45741067  0.58218923  0.70786769  1
  C  C308  1  0.48822834  0.72607729  0.85692345  1
  C  C309  1  0.45718656  0.60013162  0.88453435  1
  C  C310  1  0.48574502  0.66013420  0.84853311  1
  C  C311  1  0.48878741  0.78544747  0.61068649  1
  C  C312  1  0.46813197  0.60549552  0.88582241  1
  H  H313  1  0.47091173  0.82487559  0.54995880  1
  C  C314  1  0.45500008  0.55583784  0.65764114  1
  C  C315  1  0.45172847  0.64765966  0.84315975  1
  C  C316  1  0.45685930  0.76280828  0.53463527  1
  H  H317  1  0.48098924  0.64411456  0.68969032  1
  C  C318  1  0.49285841  0.52148015  0.65716849  1
  O  O319  1  0.47436128  0.96486513  0.93383848  1
  C  C320  1  0.48224986  0.50324278  0.64195595  1
  H  H321  1  0.49921872  0.64961235  0.73553270  1
  H  H322  1  0.46624674  0.98976245  0.75826476  1
  H  H323  1  0.47854985  0.68760888  0.50132183  1
  H  H324  1  0.49719488  0.61900494  0.50621763  1
  Cu  Cu325  1  0.44062837  0.77833870  0.98699285  1
  C  C326  1  0.54086424  0.11469836  0.04263945  1
  C  C327  1  0.53552918  0.05556552  0.05189108  1
  C  C328  1  0.53726854  0.06049602  0.18739346  1
  O  O329  1  0.53721873  0.12154411  0.18787380  1
  C  C330  1  0.53662593  0.02203465  0.12294459  1
  Cu  Cu331  1  0.53384440  0.14619101  0.28037347  1
  O  O332  1  0.53699144  0.05920777  0.30982326  1
  O  O333  1  0.51883215  0.23144333  0.36337657  1
  O  O334  1  0.53227512  0.17089184  0.36892548  1
  C  C335  1  0.52435532  0.19785742  0.40112058  1
  H  H336  1  0.54496345  0.13916490  0.08975121  1
  H  H337  1  0.53263225  0.37876100  0.10735854  1
  C  C338  1  0.53676902  0.02528394  0.25605541  1
  Cu  Cu339  1  0.53285148  0.03769440  0.39483347  1
  H  H340  1  0.53099222  0.41383600  0.40293653  1
  C  C341  1  0.53736911  0.42072206  0.09176885  1
  C  C342  1  0.51154448  0.27828986  0.07502656  1
  C  C343  1  0.50995375  0.21140773  0.06357176  1
  C  C344  1  0.50928103  0.16766133  0.12792240  1
  H  H345  1  0.51381480  0.39749326  0.33888089  1
  C  C346  1  0.50800811  0.47251079  0.47246763  1
  C  C347  1  0.51904931  0.43695043  0.32229416  1
  C  C348  1  0.52833996  0.44567349  0.36127881  1
  C  C349  1  0.51184367  0.39164039  0.02720306  1
  C  C350  1  0.50723800  0.10119505  0.25396777  1
  H  H351  1  0.51420260  0.29326484  0.12918398  1
  C  C352  1  0.51405995  0.07631547  0.19986739  1
  C  C353  1  0.51468286  0.10904629  0.13396291  1
  H  H354  1  0.51989157  0.09119948  0.09265778  1
  H  H355  1  0.51909495  0.03575304  0.20850543  1
  H  H356  1  0.50025642  0.38608854  0.11953637  1
  H  H357  1  0.51019283  0.13159961  0.38901805  1
  C  C358  1  0.50626756  0.08558159  0.38621110  1
  C  C359  1  0.50507985  0.41756572  0.08204242  1
  Cu  Cu360  1  0.54857245  0.09485377  0.34901892  1
  H  H361  1  0.54115976  0.32543662  0.41613639  1
  C  C362  1  0.52212835  0.19024387  0.48054155  1
  H  H363  1  0.50401067  0.38423563  0.23300100  1
  C  C364  1  0.54471708  0.29235506  0.45321691  1
  C  C365  1  0.51109102  0.31933287  0.01517201  1
  C  C366  1  0.54446346  0.41528396  0.03234236  1
  H  H367  1  0.52719067  0.34264533  0.02190072  1
  C  C368  1  0.50387437  0.19920181  0.18591334  1
  C  C369  1  0.50480622  0.05162087  0.45126634  1
  C  C370  1  0.50432455  0.05867554  0.31613734  1
  H  H371  1  0.50562800  0.21756048  0.47191782  1
  O  O372  1  0.52843196  0.02458653  0.48756603  1
  H  H373  1  0.54883144  0.39978709  0.34863070  1
  C  C374  1  0.55135045  0.43712756  0.38638649  1
  C  C375  1  0.50491316  0.48393804  0.09429837  1
  C  C376  1  0.50395423  0.48776765  0.25032689  1
  C  C377  1  0.50271595  0.16251236  0.24698700  1
  O  O378  1  0.56088464  0.13884671  0.38174078  1
  H  H379  1  0.55202351  0.23837827  0.36437206  1
  C  C380  1  0.55902551  0.42714886  0.43813722  1
  C  C381  1  0.56032416  0.14796672  0.44797189  1
  Cu  Cu382  1  0.55171203  0.03658696  0.46577415  1
  C  C383  1  0.55520471  0.20461390  0.47577474  1
  C  C384  1  0.55109065  0.24611556  0.42359146  1
  C  C385  1  0.54511189  0.49209078  0.39156686  1
  C  C386  1  0.53755563  0.47712983  0.13287903  1
  C  C387  1  0.51526901  0.48970018  0.27780319  1
  C  C388  1  0.53561267  0.49580069  0.34350538  1
  H  H389  1  0.53304771  0.48156776  0.18098380  1
  C  C390  1  0.55029018  0.46960201  0.01141620  1
  C  C391  1  0.54447893  0.34705552  0.00521510  1
  H  H392  1  0.52585481  0.22931519  0.00554612  1
  C  C393  1  0.53434940  0.31836777  0.00498002  1
  C  C394  1  0.56101423  0.47453993  0.49333235  1
  C  C395  1  0.51847159  0.49898155  0.00525126  1
  O  O396  1  0.56168288  0.10068609  0.49078777  1
  C  C397  1  0.52833270  0.02417531  0.00684991  1
  H  H398  1  0.56335591  0.38157164  0.43609111  1
  C  C399  1  0.52363290  0.35441380  0.78252700  1
  C  C400  1  0.51206687  0.35881537  0.78721601  1
  C  C401  1  0.52849802  0.36035987  0.71159654  1
  H  H402  1  0.52350824  0.37542021  0.66498357  1
  H  H403  1  0.53344210  0.14981379  0.63265792  1
  C  C404  1  0.52766019  0.16660343  0.59785381  1
  H  H405  1  0.51020463  0.28936008  0.69892353  1
  C  C406  1  0.51569771  0.18348909  0.70864451  1
  H  H407  1  0.53197368  0.21414921  0.73714660  1
  C  C408  1  0.51784708  0.18780509  0.62760185  1
  C  C409  1  0.52379750  0.20182617  0.75785162  1
  H  H410  1  0.52800912  0.23058937  0.86204935  1
  C  C411  1  0.52137865  0.21461639  0.82817315  1
  C  C412  1  0.51146612  0.20503336  0.85810659  1
  C  C413  1  0.50968467  0.20632901  0.57963350  1
  C  C414  1  0.52997523  0.34212972  0.84479052  1
  C  C415  1  0.53015483  0.16992507  0.52596768  1
  C  C416  1  0.54038621  0.32942322  0.83195222  1
  H  H417  1  0.51014089  0.43011715  0.87828985  1
  C  C418  1  0.51814693  0.06735502  0.81892944  1
  H  H419  1  0.52560128  0.08409790  0.80136172  1
  C  C420  1  0.53930803  0.35649473  0.70319266  1
  H  H421  1  0.50988129  0.31802228  0.89345731  1
  C  C422  1  0.50979490  0.29290085  0.94618735  1
  H  H423  1  0.54362153  0.36219556  0.65092868  1
  C  C424  1  0.50994803  0.06151888  0.77242362  1
  H  H425  1  0.51101068  0.07479373  0.71561287  1
  C  C426  1  0.51003542  0.22580566  0.93741817  1
  C  C427  1  0.54532108  0.33749865  0.76329573  1
  H  H428  1  0.55002058  0.27957954  0.63614752  1
  H  H429  1  0.52616672  0.33449473  0.89568297  1
  C  C430  1  0.53525259  0.35714692  0.53403158  1
  H  H431  1  0.54512199  0.31763720  0.87717781  1
  C  C432  1  0.51705403  0.05122133  0.89283981  1
  H  H433  1  0.53158796  0.13968391  0.87351231  1
  C  C434  1  0.54977454  0.27006075  0.57756770  1
  O  O435  1  0.51197119  0.46097952  0.67992731  1
  H  H436  1  0.52386957  0.41502160  0.95182383  1
  C  C437  1  0.53264050  0.11551156  0.92627350  1
  C  C438  1  0.52664806  0.05935138  0.94309099  1
  H  H439  1  0.54190437  0.42973548  0.84496038  1
  H  H440  1  0.51754856  0.45784055  0.71231461  1
  C  C441  1  0.52478182  0.33306856  0.52928395  1
  C  C442  1  0.53591480  0.42493395  0.53828020  1
  C  C443  1  0.50616505  0.31997417  0.74052327  1
  C  C444  1  0.50666806  0.39761107  0.83848998  1
  H  H445  1  0.54327609  0.45230131  0.54711689  1
  C  C446  1  0.52705184  0.45925740  0.51775082  1
  H  H447  1  0.52399120  0.28102426  0.53347561  1
  C  C448  1  0.50571628  0.17310279  0.73740139  1
  C  C449  1  0.54384766  0.30784436  0.52668933  1
  H  H450  1  0.50909528  0.13105741  0.98752258  1
  C  C451  1  0.51599408  0.36841629  0.51542092  1
  C  C452  1  0.51686335  0.43646764  0.50664762  1
  C  C453  1  0.53870643  0.14726630  0.97961159  1
  H  H454  1  0.50846199  0.33950857  0.51076157  1
  C  C455  1  0.54234960  0.21773633  0.97951157  1
  O  O456  1  0.50662479  0.07003047  0.51933932  1
  H  H457  1  0.51256065  0.10006845  0.51169049  1
  C  C458  1  0.50987649  0.18363884  0.99407091  1
  H  H459  1  0.52659030  0.46097561  0.80412001  1
  O  O460  1  0.54332198  0.03819256  0.54492613  1
  C  C461  1  0.50382271  0.18030637  0.81130083  1
  C  C462  1  0.54785086  0.46662650  0.83709643  1
  C  C463  1  0.50744396  0.02326850  0.91471191  1
  C  C464  1  0.50002852  0.04154814  0.79653445  1
  H  H465  1  0.55754153  0.26901354  0.86366885  1
  C  C466  1  0.55827944  0.45048578  0.83718204  1
  C  C467  1  0.53387318  0.02180902  0.54348266  1
  H  H468  1  0.50197988  0.49001509  0.93934260  1
  H  H469  1  0.55560817  0.46781700  0.96568420  1
  H  H470  1  0.50663081  0.00462912  0.97067471  1
  C  C471  1  0.55274045  0.24329925  0.97789357  1
  C  C472  1  0.56121177  0.28580529  0.81274101  1
  C  C473  1  0.55489863  0.21861231  0.54982121  1
  H  H474  1  0.55907648  0.35731955  0.64617882  1
  H  H475  1  0.55985508  0.21365334  0.97667216  1
  O  O476  1  0.54680174  0.48850370  0.65691587  1
  C  C477  1  0.55620538  0.31786678  0.75428156  1
  H  H478  1  0.55954535  0.18362074  0.58157371  1
  H  H479  1  0.55991940  0.39832573  0.84192320  1
  C  C480  1  0.56234717  0.33542309  0.69298915  1
  H  H481  1  0.54907916  0.47270517  0.70190362  1
  C  C482  1  0.51866770  0.43426963  0.99140644  1
  H  H483  1  0.54079938  0.01644801  0.67959878  1
  H  H484  1  0.50030025  0.04937539  0.64230937  1
  H  H485  1  0.50133422  0.21798957  0.59637432  1
  Cu  Cu486  1  0.50356100  0.41427966  0.62528332  1
  C  C487  1  0.51201263  0.20519651  0.50547508  1
  H  H488  1  0.53790378  0.15656626  0.50586539  1
  C  C489  1  0.53305070  0.25293752  0.99587290  1
  C  C490  1  0.55334202  0.30912147  0.98938534  1
  H  H491  1  0.56128838  0.33054939  0.99329429  1
  C  C492  1  0.57198424  0.27954558  0.81058007  1
  C  C493  1  0.56604759  0.49909121  0.83532558  1
  C  C494  1  0.56917082  0.46648280  0.54881600  1
  O  O495  1  0.57628947  0.45672000  0.58422360  1
  H  H496  1  0.57743478  0.33643680  0.63676726  1
  C  C497  1  0.57763079  0.29261924  0.74477657  1
  C  C498  1  0.57713604  0.48418482  0.83196485  1
  O  O499  1  0.58615018  0.47441205  0.83049474  1
  C  C500  1  0.57263981  0.32397045  0.68459313  1
  C  C501  1  0.58865957  0.27913255  0.73488814  1
  O  O502  1  0.59709888  0.26839850  0.71865707  1
  H  H503  1  0.57662972  0.25906192  0.85779311  1
  H  H504  1  0.51967076  0.58864845  0.24132588  1
  C  C505  1  0.52194639  0.54296891  0.26693191  1
  C  C506  1  0.53204333  0.54386212  0.29404481  1
  C  C507  1  0.52476921  0.67927459  0.07679887  1
  C  C508  1  0.51070615  0.59934840  0.05857893  1
  C  C509  1  0.52122089  0.61643669  0.07560926  1
  C  C510  1  0.50615663  0.71076722  0.04204676  1
  C  C511  1  0.51721829  0.72842922  0.05340754  1
  C  C512  1  0.52139773  0.79260210  0.04831803  1
  H  H513  1  0.51783732  0.80371272  0.25659811  1
  H  H514  1  0.51705287  0.89022975  0.16619426  1
  C  C515  1  0.52331041  0.91740635  0.36000537  1
  C  C516  1  0.51082382  0.71689874  0.33192293  1
  H  H517  1  0.51746016  0.74667377  0.31682810  1
  H  H518  1  0.51644212  0.94392814  0.34238442  1
  C  C519  1  0.51160881  0.65779391  0.37055759  1
  H  H520  1  0.53684068  0.58776286  0.28373194  1
  C  C521  1  0.53323024  0.92285043  0.32869481  1
  C  C522  1  0.53580125  0.92641697  0.19098876  1
  H  H523  1  0.53477230  0.87110574  0.19312071  1
  H  H524  1  0.53653382  0.92522995  0.07377382  1
  H  H525  1  0.52658988  0.57287179  0.09130700  1
  H  H526  1  0.53218451  0.69337737  0.09901893  1
  O  O527  1  0.52043898  0.63467941  0.40145940  1
  C  C528  1  0.53676173  0.95486677  0.12369807  1
  H  H529  1  0.52229663  0.59951306  0.36406512  1
  C  C530  1  0.50809720  0.53717128  0.44931755  1
  C  C531  1  0.54140990  0.88828789  0.35872310  1
  C  C532  1  0.52179570  0.88249731  0.42234323  1
  H  H533  1  0.54298474  0.58433262  0.44373522  1
  C  C534  1  0.53555845  0.95861084  0.25777177  1
  C  C535  1  0.54775772  0.54349563  0.44062588  1
  C  C536  1  0.51096079  0.52684510  0.05140357  1
  C  C537  1  0.51037043  0.82516300  0.23882021  1
  C  C538  1  0.50335090  0.64765226  0.04236222  1
  H  H539  1  0.51391206  0.87324757  0.44797006  1
  H  H540  1  0.51434644  0.56965629  0.46750600  1
  C  C541  1  0.53021320  0.84644305  0.45069697  1
  C  C542  1  0.53971396  0.84402505  0.41409746  1
  C  C543  1  0.50070757  0.79988655  0.26633261  1
  C  C544  1  0.50991314  0.87277776  0.18852895  1
  O  O545  1  0.52424560  0.84499961  0.04356560  1
  H  H546  1  0.55333886  0.57002179  0.02577177  1
  C  C547  1  0.54260814  0.53484087  0.10789963  1
  H  H548  1  0.54589008  0.81314967  0.43230225  1
  C  C549  1  0.50007151  0.56348247  0.40473589  1
  H  H550  1  0.50050121  0.74906598  0.02576336  1
  C  C551  1  0.50162953  0.62790566  0.37342513  1
  H  H552  1  0.50214205  0.59337731  0.25469424  1
  C  C553  1  0.54152520  0.59306438  0.15068594  1
  C  C554  1  0.50018546  0.98705110  0.43266849  1
  C  C555  1  0.50029272  0.94943972  0.11271262  1
  O  O556  1  0.50080743  0.99033163  0.07150876  1
  C  C557  1  0.50080985  0.73962786  0.30773838  1
  C  C558  1  0.54946838  0.52777867  0.04541318  1
  O  O559  1  0.54091826  0.64208528  0.18267572  1
  H  H560  1  0.54959579  0.88855129  0.34033982  1
  C  C561  1  0.50016341  0.89797336  0.16190479  1
  C  C562  1  0.55504228  0.53502444  0.49322117  1
  H  H563  1  0.52341280  0.98389387  0.02368440  1
  C  C564  1  0.52474184  0.64783051  0.59847900  1
  C  C565  1  0.51426269  0.63148407  0.58913175  1
  C  C566  1  0.50983884  0.57426007  0.61945116  1
  C  C567  1  0.53113784  0.60080537  0.63452430  1
  C  C568  1  0.51627462  0.52861826  0.64991442  1
  H  H569  1  0.52811648  0.69288578  0.57941012  1
  C  C570  1  0.54270628  0.60613621  0.64118300  1
  C  C571  1  0.52656121  0.54178685  0.65856802  1
  C  C572  1  0.51848006  0.68335338  0.72821868  1
  H  H573  1  0.53947523  0.71075115  0.63582117  1
  C  C574  1  0.51425700  0.74099855  0.69901768  1
  H  H575  1  0.51669583  0.84515324  0.68680428  1
  C  C576  1  0.52035684  0.79948713  0.70309776  1
  C  C577  1  0.53354137  0.54961059  0.84047371  1
  C  C578  1  0.52508027  0.50793841  0.82170449  1
  H  H579  1  0.51422691  0.63971434  0.71651540  1
  C  C580  1  0.52784653  0.68161889  0.76367224  1
  H  H581  1  0.53162826  0.63980825  0.78375200  1
  C  C582  1  0.53036717  0.79942732  0.72988531  1
  C  C583  1  0.53400519  0.74018626  0.76138506  1
  H  H584  1  0.53573349  0.83917221  0.72401362  1
  C  C585  1  0.53210068  0.60301544  0.88793856  1
  H  H586  1  0.50841850  0.66427238  0.56746584  1
  C  C587  1  0.54539088  0.67224194  0.64554056  1
  H  H588  1  0.53887406  0.62349385  0.91297743  1
  C  C589  1  0.52218651  0.62312090  0.90527939  1
  C  C590  1  0.54383895  0.74436043  0.80045766  1
  H  H591  1  0.52400419  0.89492075  0.84144166  1
  C  C592  1  0.54951945  0.55333461  0.65780469  1
  C  C593  1  0.51359541  0.59292140  0.86792348  1
  C  C594  1  0.51041451  0.91569663  0.77280688  1
  H  H595  1  0.52131284  0.66456518  0.94505184  1
  C  C596  1  0.51477981  0.53223886  0.83095193  1
  C  C597  1  0.51621763  0.88212099  0.82771922  1
  H  H598  1  0.51436845  0.71257545  0.85660583  1
  C  C599  1  0.54461171  0.53242277  0.83228239  1
  C  C600  1  0.51654251  0.95236579  0.71738401  1
  C  C601  1  0.52654320  0.97857504  0.72910927  1
  H  H602  1  0.51631111  0.80054681  0.90271141  1
  C  C603  1  0.51195228  0.83044504  0.86445414  1
  C  C604  1  0.51176950  0.95612933  0.64860926  1
  H  H605  1  0.53020903  0.98437911  0.78399566  1
  H  H606  1  0.52394104  0.53135280  0.97626470  1
  C  C607  1  0.50312890  0.73674615  0.67754568  1
  H  H608  1  0.50833950  0.51125600  0.80100434  1
  C  C609  1  0.51764161  0.97809261  0.59382673  1
  C  C610  1  0.50636267  0.69764292  0.85816224  1
  C  C611  1  0.50380304  0.63140162  0.86203745  1
  O  O612  1  0.51969870  0.81004830  0.54542705  1
  H  H613  1  0.52848938  0.51209816  0.50784052  1
  O  O614  1  0.53500596  0.76597680  0.53885787  1
  C  C615  1  0.52833403  0.80469475  0.51725942  1
  H  H616  1  0.50488146  0.82517590  0.62157569  1
  H  H617  1  0.53150089  0.50754726  0.68992441  1
  C  C618  1  0.55987447  0.56981437  0.67103138  1
  H  H619  1  0.50378817  0.93850372  0.64246620  1
  H  H620  1  0.55015112  0.63470763  0.83542932  1
  C  C621  1  0.50216333  0.81279505  0.83610686  1
  C  C622  1  0.55213124  0.58261250  0.83167731  1
  C  C623  1  0.55563385  0.68776862  0.66225217  1
  H  H624  1  0.55751577  0.73791463  0.67076813  1
  O  O625  1  0.55171380  0.75159282  0.83050084  1
  H  H626  1  0.55583386  0.57143699  0.53685386  1
  C  C627  1  0.53267746  0.99742849  0.67264292  1
  C  C628  1  0.52785209  0.99746491  0.60454112  1
  H  H629  1  0.51453769  0.97909075  0.53809823  1
  H  H630  1  0.56842796  0.60432984  0.84377695  1
  C  C631  1  0.56320240  0.63468784  0.66691068  1
  H  H632  1  0.56529495  0.53343218  0.68572766  1
  C  C633  1  0.56258440  0.56595030  0.83398559  1
  C  C634  1  0.57371958  0.65093116  0.68339634  1
  O  O635  1  0.58246867  0.66378237  0.69573887  1
