# generated using pymatgen
data_Cu3H16C30(NO7)2
_symmetry_space_group_name_H-M   'P 1'
_cell_length_a   28.91580102
_cell_length_b   20.19565493
_cell_length_c   6.73539092
_cell_angle_alpha   90.00000000
_cell_angle_beta   90.00000000
_cell_angle_gamma   90.00000000
_symmetry_Int_Tables_number   1
_chemical_formula_structural   Cu3H16C30(NO7)2
_chemical_formula_sum   'Cu12 H64 C120 N8 O56'
_cell_volume   3933.29007425
_cell_formula_units_Z   4
loop_
 _symmetry_equiv_pos_site_id
 _symmetry_equiv_pos_as_xyz
  1  'x, y, z'
loop_
 _atom_site_type_symbol
 _atom_site_label
 _atom_site_symmetry_multiplicity
 _atom_site_fract_x
 _atom_site_fract_y
 _atom_site_fract_z
 _atom_site_occupancy
  C  C0  1  0.11356811  0.12397107  0.26534954  1
  Cu  Cu1  1  0.17961113  0.22854075  0.24066828  1
  N  N2  1  0.11924323  0.18286206  0.33618576  1
  C  C3  1  0.08229175  0.06875715  0.27908700  1
  O  O4  1  0.14117925  0.29963746  0.17813916  1
  C  C5  1  0.04742202  0.08239525  0.42576398  1
  H  H6  1  0.05888739  0.29015148  0.09747986  1
  C  C7  1  0.04689167  0.31288723  0.24180216  1
  H  H8  1  0.14245209  0.12142117  0.15096053  1
  O  O9  1  0.20492243  0.14748675  0.30427890  1
  H  H10  1  0.02179256  0.04366391  0.47623311  1
  H  H11  1  0.18834869  0.03736267  0.39963745  1
  C  C12  1  0.22284355  0.03022208  0.46421068  1
  C  C13  1  0.00104181  0.30708044  0.30107365  1
  O  O14  1  0.08684582  0.01489554  0.18026304  1
  C  C15  1  0.08547459  0.18663259  0.47563675  1
  C  C16  1  0.12927720  0.34541577  0.31421876  1
  C  C17  1  0.07741487  0.34537942  0.36728143  1
  O  O18  1  0.15551592  0.38173356  0.39547389  1
  H  H19  1  0.00166523  0.01303488  0.13051656  1
  C  C20  1  0.24681499  0.14227084  0.36830136  1
  H  H21  1  0.15692300  0.04794518  0.10724747  1
  C  C22  1  0.13377647  0.00794847  0.05375100  1
  H  H23  1  0.08685963  0.39465645  0.64147557  1
  C  C24  1  0.00919316  0.16360498  0.65127060  1
  C  C25  1  0.06221595  0.37327527  0.54488245  1
  O  O26  1  0.00900997  0.21338908  0.74430343  1
  O  O27  1  0.02372547  0.41515951  0.91793825  1
  C  C28  1  0.01563172  0.36703976  0.60053782  1
  H  H29  1  0.08989442  0.23430794  0.54516797  1
  H  H30  1  0.12448145  0.02075610  0.90106978  1
  C  C31  1  0.04663640  0.14499069  0.51042243  1
  C  C32  1  0.11804286  0.76807049  0.22823090  1
  C  C33  1  0.15327585  0.82523888  0.17003528  1
  C  C34  1  0.20116943  0.81797201  0.16309225  1
  C  C35  1  0.22460785  0.87612953  0.11526276  1
  O  O36  1  0.07605997  0.78011643  0.25835207  1
  H  H37  1  0.21778920  0.77131230  0.21318162  1
  H  H38  1  0.03015830  0.71713628  0.28311271  1
  H  H39  1  0.18073875  0.91200595  0.39021834  1
  O  O40  1  0.13286375  0.71282283  0.22182347  1
  C  C41  1  0.13059951  0.88375347  0.12951976  1
  N  N42  1  0.01371191  0.62860098  0.21443652  1
  H  H43  1  0.09330399  0.88361082  0.14507922  1
  C  C44  1  0.20478225  0.93864721  0.07573254  1
  C  C45  1  0.15773055  0.94077074  0.08348739  1
  H  H46  1  0.22557679  0.98312636  0.03951751  1
  H  H47  1  0.16270916  0.93382501  0.62603675  1
  C  C48  1  0.19451448  0.91836576  0.54207963  1
  O  O49  1  0.19323149  0.84723589  0.63889754  1
  H  H50  1  0.21497890  0.73332019  0.84554182  1
  C  C51  1  0.23199559  0.81442071  0.63939937  1
  C  C52  1  0.23224293  0.96966373  0.55737359  1
  C  C53  1  0.24013852  0.75405331  0.74007709  1
  O  O54  1  0.27724086  0.18312866  0.35484536  1
  C  C55  1  0.25809924  0.07799006  0.46987848  1
  C  C56  1  0.48765198  0.40988779  0.02038046  1
  C  C57  1  0.44585836  0.44476987  0.00812505  1
  C  C58  1  0.49112472  0.34995484  0.91760549  1
  C  C59  1  0.44689687  0.33460628  0.82429014  1
  C  C60  1  0.30279650  0.06316116  0.54063994  1
  C  C61  1  0.40685706  0.42127400  0.89822887  1
  N  N62  1  0.40798601  0.36542783  0.80453667  1
  H  H63  1  0.44039044  0.28560621  0.75360942  1
  H  H64  1  0.37262575  0.44652024  0.91210035  1
  O  O65  1  0.38991881  0.03797479  0.67100603  1
  C  C66  1  0.30986604  0.00516539  0.64312722  1
  H  H67  1  0.33145011  0.09908706  0.52108931  1
  C  C68  1  0.27510485  0.87353447  0.10275450  1
  C  C69  1  0.43539478  0.87965401  0.30280851  1
  Cu  Cu70  1  0.35946792  0.94409867  0.12501685  1
  O  O71  1  0.40790469  0.83197688  0.33778053  1
  C  C72  1  0.48506714  0.87033292  0.31967689  1
  H  H73  1  0.48125176  0.76067045  0.31944805  1
  C  C74  1  0.44525212  0.50627777  0.11636323  1
  Cu  Cu75  1  0.35212565  0.81399772  0.21074402  1
  O  O76  1  0.41923003  0.93349384  0.22383236  1
  O  O77  1  0.29425894  0.81771636  0.09733618  1
  O  O78  1  0.29635848  0.92973428  0.08743230  1
  N  N79  1  0.31079450  0.79938295  0.46386250  1
  O  O80  1  0.39249004  0.66914478  0.06894743  1
  O  O81  1  0.40667782  0.53615344  0.11805455  1
  H  H82  1  0.27840325  0.87591044  0.43273800  1
  O  O83  1  0.47943298  0.52978572  0.21794537  1
  H  H84  1  0.49407243  0.97476199  0.34835977  1
  O  O85  1  0.27071689  0.64129842  0.95756491  1
  O  O86  1  0.36673266  0.95024505  0.84069840  1
  C  C87  1  0.27365512  0.95855324  0.67231860  1
  C  C88  1  0.29614577  0.65935638  0.82664182  1
  C  C89  1  0.31438845  0.74891973  0.58801352  1
  H  H90  1  0.28154699  0.90984557  0.74798016  1
  O  O91  1  0.33408220  0.62958189  0.77715165  1
  C  C92  1  0.48028383  0.67763947  0.95758049  1
  C  C93  1  0.28210790  0.72260009  0.72952144  1
  C  C94  1  0.47075716  0.79852563  0.90020408  1
  Cu  Cu95  1  0.37319627  0.58987295  0.94610800  1
  C  C96  1  0.45374404  0.73638806  0.94467503  1
  H  H97  1  0.45003040  0.84342440  0.87707326  1
  H  H98  1  0.46529682  0.62820476  0.99661538  1
  C  C99  1  0.27184361  0.82837007  0.51362144  1
  H  H100  1  0.34917194  0.72670645  0.56192318  1
  C  C101  1  0.36006432  0.99912855  0.71379377  1
  O  O102  1  0.37793281  0.77292393  0.98018985  1
  C  C103  1  0.40457461  0.72528621  0.99667993  1
  O  O104  1  0.62272280  0.29385109  0.36299159  1
  C  C105  1  0.62006543  0.08680649  0.37882597  1
  N  N106  1  0.70349396  0.09884463  0.41470412  1
  C  C107  1  0.61805055  0.15690726  0.36092665  1
  C  C108  1  0.65934116  0.26740596  0.37163918  1
  C  C109  1  0.65843988  0.19271927  0.37940934  1
  H  H110  1  0.73722100  0.18559088  0.43471900  1
  Cu  Cu111  1  0.73351014  0.31994365  0.12901062  1
  H  H112  1  0.58377055  0.18102076  0.34891305  1
  O  O113  1  0.73002285  0.41156947  0.16691009  1
  O  O114  1  0.69783184  0.30056251  0.36824014  1
  O  O115  1  0.58359940  0.04834678  0.37955145  1
  H  H116  1  0.64555618  0.37054042  0.15756296  1
  H  H117  1  0.56469298  0.34239288  0.16340486  1
  C  C118  1  0.70193039  0.16323864  0.40474186  1
  O  O119  1  0.56223463  0.48588153  0.40590650  1
  H  H120  1  0.51694977  0.42825885  0.11155413  1
  C  C121  1  0.66733554  0.06336900  0.39686692  1
  H  H122  1  0.67846865  0.01220164  0.41661006  1
  O  O123  1  0.74238327  0.23210420  0.05312564  1
  C  C124  1  0.60118690  0.49534753  0.48795264  1
  C  C125  1  0.57076816  0.32724113  0.00077401  1
  C  C126  1  0.71759395  0.44944035  0.02319802  1
  C  C127  1  0.64065956  0.40041111  0.02409182  1
  H  H128  1  0.68623326  0.08389763  0.00986663  1
  H  H129  1  0.55663488  0.40229388  0.67155362  1
  H  H130  1  0.58696548  0.27494258  0.97169176  1
  C  C131  1  0.67233204  0.44388466  0.93494841  1
  C  C132  1  0.66171043  0.47370218  0.74944999  1
  C  C133  1  0.59002785  0.41085889  0.73673614  1
  C  C134  1  0.60160678  0.38113075  0.91930942  1
  C  C135  1  0.61947095  0.46099662  0.66449083  1
  H  H136  1  0.57242978  0.00161462  0.87769037  1
  O  O137  1  0.52468230  0.30663462  0.91291019  1
  N  N138  1  0.62628442  0.04510294  0.90306221  1
  O  O139  1  0.74822249  0.47953753  0.92528628  1
  O  O140  1  0.74248602  0.20242174  0.74188673  1
  C  C141  1  0.67039548  0.03935483  0.94858663  1
  C  C142  1  0.54846557  0.80021133  0.39325497  1
  O  O143  1  0.70188518  0.91059364  0.41777218  1
  C  C144  1  0.51211653  0.92568292  0.33639486  1
  C  C145  1  0.57716322  0.85546310  0.40869295  1
  H  H146  1  0.62375963  0.97106827  0.26362240  1
  O  O147  1  0.71785478  0.80789468  0.35429691  1
  C  C148  1  0.73034892  0.86877388  0.40928067  1
  Cu  Cu149  1  0.54502813  0.52324024  0.15030083  1
  C  C150  1  0.56038320  0.91921802  0.36376467  1
  Cu  Cu151  1  0.66363293  0.76718124  0.43630281  1
  C  C152  1  0.59685232  0.97419680  0.37699843  1
  O  O153  1  0.60867066  0.72779918  0.49359338  1
  O  O154  1  0.54243618  0.68400036  0.40773277  1
  O  O155  1  0.62599950  0.54557995  0.45138117  1
  C  C156  1  0.56703534  0.73189767  0.42241567  1
  H  H157  1  0.61460960  0.85099371  0.44020048  1
  C  C158  1  0.50209344  0.80654645  0.32951116  1
  H  H159  1  0.61617539  0.97466102  0.52252784  1
  H  H160  1  0.53703828  0.89739660  0.71157002  1
  C  C161  1  0.62515514  0.91887957  0.89242081  1
  H  H162  1  0.58464081  0.75484645  0.84825717  1
  C  C163  1  0.60804070  0.98721636  0.89596423  1
  C  C164  1  0.51930386  0.80737042  0.88372467  1
  O  O165  1  0.68818853  0.63479085  0.70774288  1
  C  C166  1  0.55743122  0.63104403  0.91421063  1
  C  C167  1  0.74879454  0.97690651  0.96738532  1
  C  C168  1  0.71054983  0.68772905  0.70882770  1
  C  C169  1  0.54479700  0.87159244  0.86230835  1
  C  C170  1  0.52717518  0.68914213  0.92073981  1
  O  O171  1  0.69131836  0.74270680  0.68295550  1
  C  C172  1  0.54771914  0.75034112  0.87961953  1
  O  O173  1  0.60149317  0.63486910  0.89021607  1
  O  O174  1  0.60051965  0.86603796  0.86498820  1
  O  O175  1  0.53698105  0.57749778  0.93464885  1
  Cu  Cu176  1  0.62390545  0.61672022  0.63902354  1
  C  C177  1  0.69756532  0.98030799  0.94334278  1
  C  C178  1  0.67402735  0.92160224  0.90488625  1
  H  H179  1  0.69604799  0.87646723  0.92661027  1
  H  H180  1  0.68359340  0.51120429  0.67474453  1
  H  H181  1  0.53817606  0.90496432  0.98322366  1
  C  C182  1  0.88930254  0.24546053  0.03728886  1
  H  H183  1  0.82154194  0.26426854  0.17589791  1
  H  H184  1  0.96957834  0.22319391  0.13643188  1
  O  O185  1  0.86543036  0.06509345  0.14375087  1
  C  C186  1  0.98383408  0.33439367  0.48278746  1
  C  C187  1  0.96972318  0.27868416  0.13977109  1
  C  C188  1  0.90824997  0.04765683  0.16159472  1
  O  O189  1  0.93394257  0.08946112  0.24530732  1
  O  O190  1  0.91423403  0.27565026  0.17073820  1
  O  O191  1  0.91923540  0.48798515  0.06891713  1
  C  C192  1  0.84051880  0.24376768  0.04422390  1
  O  O193  1  0.97383214  0.12165636  0.64268201  1
  N  N194  1  0.88626639  0.18508049  0.71343884  1
  O  O195  1  0.95407244  0.40116263  0.82138327  1
  C  C196  1  0.76387368  0.22098296  0.88324564  1
  C  C197  1  0.90696309  0.21329235  0.86376740  1
  O  O198  1  0.90301544  0.03370014  0.58079191  1
  O  O199  1  0.76929519  0.03701900  0.97095808  1
  C  C200  1  0.84196000  0.19577720  0.72272394  1
  Cu  Cu201  1  0.92701277  0.48202780  0.79685618  1
  C  C202  1  0.81482212  0.22118406  0.88218991  1
  Cu  Cu203  1  0.82765465  0.06768562  0.92866320  1
  O  O204  1  0.83289943  0.06114678  0.65609346  1
  H  H205  1  0.94633592  0.20989907  0.84300430  1
  H  H206  1  0.82473224  0.17327365  0.59451788  1
  C  C207  1  0.86000290  0.01774256  0.58444858  1
  Cu  Cu208  1  0.91896056  0.12099835  0.50423789  1
  C  C209  1  0.99778738  0.39553094  0.79047645  1
  H  H210  1  0.94809437  0.33388307  0.52331045  1
  H  H211  1  0.97690109  0.29824038  0.99283552  1
  O  O212  1  0.93604633  0.76500267  0.36549473  1
  C  C213  1  0.88209059  0.77525687  0.37769609  1
  C  C214  1  0.99623481  0.68276795  0.26955147  1
  H  H215  1  0.79449092  0.77775938  0.37047713  1
  C  C216  1  0.90183516  0.53837839  0.15430271  1
  C  C217  1  0.78093365  0.88189811  0.44241694  1
  C  C218  1  0.80747822  0.82832543  0.39382353  1
  C  C219  1  0.92668520  0.98469752  0.10524293  1
  C  C220  1  0.85638099  0.84102714  0.39414078  1
  H  H221  1  0.87935826  0.75765132  0.22237429  1
  C  C222  1  0.91665018  0.65520024  0.27619685  1
  C  C223  1  0.98132912  0.58598824  0.18372749  1
  C  C224  1  0.93134839  0.59238580  0.21105657  1
  H  H225  1  0.87892969  0.66198670  0.29401324  1
  C  C226  1  0.94953687  0.70487168  0.31077447  1
  Cu  Cu227  1  0.80448820  0.51543652  0.03617716  1
  O  O228  1  0.85878510  0.54147666  0.19651831  1
  C  C229  1  0.87549294  0.90103240  0.45826280  1
  H  H230  1  0.99976045  0.54013152  0.14682115  1
  C  C231  1  0.97583101  0.97228257  0.11197033  1
  H  H232  1  0.91336657  0.90276042  0.46583059  1
  C  C233  1  0.79875340  0.94363853  0.49881468  1
  H  H234  1  0.86239496  0.93420429  0.02457114  1
  N  N235  1  0.99796328  0.91956949  0.05973526  1
  C  C236  1  0.90062897  0.93071245  0.03445419  1
  H  H237  1  0.87011785  0.73724126  0.49145360  1
  H  H238  1  0.83672073  0.83979858  0.01562177  1
  C  C239  1  0.85022092  0.81734999  0.87953004  1
  C  C240  1  0.78053766  0.75431684  0.76907494  1
  C  C241  1  0.78845414  0.63359627  0.74379791  1
  O  O242  1  0.77291743  0.92834041  0.97445324  1
  O  O243  1  0.90276318  0.56790043  0.75539682  1
  O  O244  1  0.83577627  0.52322769  0.77678629  1
  C  C245  1  0.97111820  0.87508221  0.99362892  1
  O  O246  1  0.90326796  0.81519596  0.91223237  1
  C  C247  1  0.82735118  0.75363722  0.82109963  1
  H  H248  1  0.84107098  0.85497492  0.75996618  1
  C  C249  1  0.76166560  0.69208890  0.73758219  1
  C  C250  1  0.85988010  0.57461740  0.76478589  1
  H  H251  1  0.89245602  0.70012384  0.89281582  1
  C  C252  1  0.85707153  0.69812615  0.83729960  1
  C  C253  1  0.83467275  0.63848574  0.78698598  1
  H  H254  1  0.77456487  0.58492991  0.70325840  1
  H  H255  1  0.99335850  0.82907110  0.97669556  1
  C  C256  1  0.92134919  0.87268090  0.96494936  1
  C  C257  1  0.84601323  0.95414224  0.50955821  1
  H  H258  1  0.77117292  0.98412540  0.52210791  1
  H  H259  1  0.76061414  0.79916479  0.76075298  1
