# generated using pymatgen
data_CuH6C7O4
_symmetry_space_group_name_H-M   'P 1'
_cell_length_a   12.88936096
_cell_length_b   16.01730272
_cell_length_c   17.42063358
_cell_angle_alpha   90.00000000
_cell_angle_beta   90.00000000
_cell_angle_gamma   90.00000000
_symmetry_Int_Tables_number   1
_chemical_formula_structural   CuH6C7O4
_chemical_formula_sum   'Cu16 H96 C112 O64'
_cell_volume   3596.53851666
_cell_formula_units_Z   16
loop_
 _symmetry_equiv_pos_site_id
 _symmetry_equiv_pos_as_xyz
  1  'x, y, z'
loop_
 _atom_site_type_symbol
 _atom_site_label
 _atom_site_symmetry_multiplicity
 _atom_site_fract_x
 _atom_site_fract_y
 _atom_site_fract_z
 _atom_site_occupancy
  H  H0  1  0.43511086  0.15601223  0.23764814  1
  C  C1  1  0.22273227  0.09275531  0.37214565  1
  Cu  Cu2  1  0.19320514  0.04363523  0.09303658  1
  O  O3  1  0.29000358  0.22619820  0.34107506  1
  H  H4  1  0.22534097  0.10119820  0.24588861  1
  C  C5  1  0.28954665  0.16889141  0.38451541  1
  C  C6  1  0.04507632  0.01827024  0.20476376  1
  C  C7  1  0.45107468  0.20234981  0.12219413  1
  O  O8  1  0.34462054  0.16668765  0.44661403  1
  C  C9  1  0.36297958  0.15133205  0.09532937  1
  C  C10  1  0.14791842  0.08537624  0.43880203  1
  O  O11  1  0.29994674  0.11897743  0.13792551  1
  H  H12  1  0.09479157  0.14186652  0.44513579  1
  C  C13  1  0.09824254  0.01083237  0.28130453  1
  C  C14  1  0.16533586  0.09260538  0.29489749  1
  H  H15  1  0.34147965  0.01379677  0.31143968  1
  H  H16  1  0.11365098  0.14877176  0.29551375  1
  O  O17  1  0.34246359  0.14763847  0.02176344  1
  C  C18  1  0.48474534  0.18562364  0.19609807  1
  H  H19  1  0.18358960  0.07353904  0.49736140  1
  H  H20  1  0.35785520  0.01761621  0.41621672  1
  C  C21  1  0.29738799  0.01385177  0.36621994  1
  C  C22  1  0.02299712  0.00151462  0.34644413  1
  C  C23  1  0.10325039  0.22165436  0.59964159  1
  C  C24  1  0.40471680  0.01974194  0.58859150  1
  O  O25  1  0.26607551  0.17997060  0.86566899  1
  C  C26  1  0.17234137  0.16176679  0.87768031  1
  O  O27  1  0.43317973  0.18969276  0.58688975  1
  C  C28  1  0.09428012  0.19065242  0.82305617  1
  H  H29  1  0.44574706  0.11944207  0.70518946  1
  H  H30  1  0.15353849  0.12410473  0.72298916  1
  C  C31  1  0.05308862  0.21828700  0.68086497  1
  Cu  Cu32  1  0.37677339  0.07781838  0.94314672  1
  O  O33  1  0.20076336  0.19789495  0.59462910  1
  H  H34  1  0.33223703  0.05339037  0.60338192  1
  C  C35  1  0.13709158  0.18811882  0.74129509  1
  Cu  Cu36  1  0.34388150  0.23680104  0.94727033  1
  O  O37  1  0.14605703  0.12180721  0.93702464  1
  Cu  Cu38  1  0.19002205  0.01761712  0.94506429  1
  H  H39  1  0.03215444  0.06030520  0.81345798  1
  Cu  Cu40  1  0.30650851  0.23636260  0.53158481  1
  H  H41  1  0.39846603  0.01061743  0.52384387  1
  H  H42  1  0.21021158  0.22146351  0.73292869  1
  O  O43  1  0.41795442  0.01336027  0.85841519  1
  O  O44  1  0.05305417  0.23943124  0.54583379  1
  C  C45  1  0.00046211  0.12837016  0.82613170  1
  H  H46  1  0.33172983  0.00242022  0.73111972  1
  H  H47  1  0.34139645  0.30728672  0.15528341  1
  H  H48  1  0.38555359  0.31655024  0.06072994  1
  Cu  Cu49  1  0.29942703  0.46941733  0.05481405  1
  O  O50  1  0.43207077  0.47952979  0.08998638  1
  O  O51  1  0.16705374  0.43717375  0.02920203  1
  C  C52  1  0.08923558  0.44587470  0.07325625  1
  C  C53  1  0.41367334  0.29859406  0.11809220  1
  O  O54  1  0.08250342  0.40895651  0.13402442  1
  C  C55  1  0.46602151  0.44470726  0.15261276  1
  O  O56  1  0.45919208  0.47678982  0.21432289  1
  H  H57  1  0.47479679  0.33195589  0.26921761  1
  H  H58  1  0.38867971  0.29842932  0.68404966  1
  O  O59  1  0.36976434  0.32666940  0.87834553  1
  C  C60  1  0.44759401  0.33871944  0.83482252  1
  C  C61  1  0.44536108  0.39606173  0.76979709  1
  C  C62  1  0.34708251  0.44768247  0.76853798  1
  H  H63  1  0.28501352  0.42052266  0.60224983  1
  C  C64  1  0.35464758  0.45874106  0.61968492  1
  H  H65  1  0.27935288  0.40280878  0.76754181  1
  C  C66  1  0.45547292  0.40896497  0.62094700  1
  H  H67  1  0.12860812  0.32090300  0.83989530  1
  H  H68  1  0.07412770  0.35314742  0.69196836  1
  C  C69  1  0.46310713  0.35855534  0.54926082  1
  C  C70  1  0.05834235  0.28007234  0.84458728  1
  H  H71  1  0.17077518  0.46241135  0.71120370  1
  C  C72  1  0.44968771  0.34907789  0.68995369  1
  H  H73  1  0.34353532  0.48205251  0.82750255  1
  O  O74  1  0.38516594  0.33144524  0.51488904  1
  C  C75  1  0.01114159  0.30714931  0.70441501  1
  H  H76  1  0.02408343  0.28590725  0.90474407  1
  O  O77  1  0.02193326  0.44836452  0.81403348  1
  O  O78  1  0.17944737  0.69306529  0.32616131  1
  C  C79  1  0.04307494  0.65642282  0.41364614  1
  C  C80  1  0.43821298  0.66967902  0.08834617  1
  C  C81  1  0.00667487  0.58620408  0.36431942  1
  H  H82  1  0.04974897  0.61523848  0.11795817  1
  Cu  Cu83  1  0.31262805  0.69852187  0.28474173  1
  C  C84  1  0.14983362  0.67699294  0.39465687  1
  H  H85  1  0.37086216  0.65089238  0.12303340  1
  O  O86  1  0.45258278  0.68300039  0.24606040  1
  H  H87  1  0.02338720  0.60191055  0.30158175  1
  C  C88  1  0.48417248  0.74816537  0.12316344  1
  O  O89  1  0.20807763  0.68645627  0.45241641  1
  H  H90  1  0.25094990  0.72820551  0.01478518  1
  H  H91  1  0.06628843  0.53888790  0.37560867  1
  C  C92  1  0.49832093  0.73875617  0.20628206  1
  C  C93  1  0.02352164  0.63174899  0.49863498  1
  O  O94  1  0.30589180  0.56402096  0.00373078  1
  H  H95  1  0.04746118  0.68781044  0.53193185  1
  O  O96  1  0.22843494  0.63537139  0.70997229  1
  H  H97  1  0.45341509  0.60763198  0.64558759  1
  O  O98  1  0.43331403  0.55911649  0.91800532  1
  H  H99  1  0.03986916  0.50346748  0.93718038  1
  H  H100  1  0.36136174  0.50830432  0.57679858  1
  C  C101  1  0.38683443  0.59610970  0.96691182  1
  C  C102  1  0.43890080  0.56844417  0.70050548  1
  C  C103  1  0.23599158  0.56271608  0.70306203  1
  H  H104  1  0.43319720  0.60827109  0.75161047  1
  H  H105  1  0.07594489  0.57824010  0.52018977  1
  Cu  Cu106  1  0.01607319  0.55835702  0.76076873  1
  H  H107  1  0.09729738  0.58572613  0.98520101  1
  C  C108  1  0.02355539  0.55016537  0.98239484  1
  C  C109  1  0.33585836  0.50970930  0.69747905  1
  O  O110  1  0.12846298  0.51490942  0.70303827  1
  C  C111  1  0.41890856  0.68439227  0.99836968  1
  O  O112  1  0.32233024  0.82129533  0.30306818  1
  H  H113  1  0.42299622  0.87228295  0.14623584  1
  C  C114  1  0.39763601  0.81572096  0.11283669  1
  C  C115  1  0.31384146  0.86070027  0.36520966  1
  H  H116  1  0.23379831  0.93877939  0.23417771  1
  H  H117  1  0.13510221  0.86910319  0.27430380  1
  H  H118  1  0.11248397  0.86567714  0.42283377  1
  O  O119  1  0.28166048  0.94320918  0.07808205  1
  O  O120  1  0.35950812  0.84597121  0.42671475  1
  C  C121  1  0.23968708  0.93075219  0.35932090  1
  H  H122  1  0.20180013  0.92253706  0.48234810  1
  C  C123  1  0.17351792  0.93496114  0.28497239  1
  C  C124  1  0.16002741  0.92281641  0.42690716  1
  H  H125  1  0.32800761  0.79579487  0.14374884  1
  C  C126  1  0.37067502  0.82940107  0.02603812  1
  C  C127  1  0.29315000  0.89737298  0.01881762  1
  Cu  Cu128  1  0.28646159  0.77286406  0.48855001  1
  O  O129  1  0.09543094  0.98803671  0.14428112  1
  C  C130  1  0.08780816  0.99964951  0.42316628  1
  H  H131  1  0.49606865  0.91867725  0.00895973  1
  C  C132  1  0.00112328  0.99140522  0.48779964  1
  O  O133  1  0.20703763  0.92037517  0.61215089  1
  C  C134  1  0.39920152  0.95772739  0.71899058  1
  O  O135  1  0.30134188  0.80846806  0.59119624  1
  C  C136  1  0.29164694  0.88857375  0.60969673  1
  C  C137  1  0.49763957  0.99955541  0.74055421  1
  C  C138  1  0.47248937  0.85807080  0.98624786  1
  H  H139  1  0.39061172  0.89746160  0.75133087  1
  C  C140  1  0.39683045  0.93348094  0.62891947  1
  O  O141  1  0.25040068  0.91453283  0.95826433  1
  H  H142  1  0.45783726  0.86626223  0.92224884  1
  H  H143  1  0.48095124  0.81930103  0.65130623  1
  H  H144  1  0.30700004  0.75767756  0.92928807  1
  H  H145  1  0.48208175  0.86257260  0.54884818  1
  C  C146  1  0.49134230  0.87462380  0.61210631  1
  C  C147  1  0.32749684  0.75079746  0.98948012  1
  H  H148  1  0.57705775  0.13155636  0.06028994  1
  H  H149  1  0.71316376  0.17764513  0.16462543  1
  H  H150  1  0.97112711  0.05841734  0.35691028  1
  C  C151  1  0.60922091  0.19997581  0.29874912  1
  O  O152  1  0.61524493  0.12799216  0.30878079  1
  C  C153  1  0.54001665  0.19479564  0.06071479  1
  C  C154  1  0.57001611  0.23394505  0.22126210  1
  C  C155  1  0.66748485  0.23642108  0.16441962  1
  O  O156  1  0.96243201  0.04892716  0.20314934  1
  O  O157  1  0.79305508  0.24382502  0.03985707  1
  C  C158  1  0.70537152  0.24646265  0.02214257  1
  O  O159  1  0.79107214  0.07533161  0.84857629  1
  H  H160  1  0.88617223  0.18347472  0.65253721  1
  C  C161  1  0.81935775  0.10189826  0.78184341  1
  C  C162  1  0.51452343  0.08212687  0.69262747  1
  H  H163  1  0.59036273  0.11642197  0.70756576  1
  O  O164  1  0.78419905  0.08106910  0.72066775  1
  C  C165  1  0.91136778  0.15746410  0.77173287  1
  H  H166  1  0.97456251  0.09579726  0.67006127  1
  H  H167  1  0.97077829  0.12300400  0.88570819  1
  C  C168  1  0.95286160  0.16002158  0.69113962  1
  O  O169  1  0.58155135  0.17052090  0.52279398  1
  H  H170  1  0.67378187  0.03428997  0.58738894  1
  O  O171  1  0.58498695  0.04115361  0.85204681  1
  O  O172  1  0.95813537  0.05291159  0.51304798  1
  C  C173  1  0.50203911  0.02134814  0.82128805  1
  H  H174  1  0.84726925  0.24572244  0.85390380  1
  C  C175  1  0.50778047  0.14578615  0.56537326  1
  C  C176  1  0.59549915  0.00394360  0.58150798  1
  C  C177  1  0.51018613  0.06526281  0.60525638  1
  O  O178  1  0.67571720  0.24503337  0.94918655  1
  H  H179  1  0.51626341  0.20602101  0.99961921  1
  H  H180  1  0.90425427  0.47709367  0.48575332  1
  C  C181  1  0.90687595  0.44513990  0.05113048  1
  C  C182  1  0.86431475  0.47970075  0.32749570  1
  O  O183  1  0.85306888  0.47193133  0.25966432  1
  H  H184  1  0.55006479  0.36414179  0.03115019  1
  H  H185  1  0.60893125  0.35780026  0.24955260  1
  C  C186  1  0.58593140  0.34772897  0.08492031  1
  O  O187  1  0.68545010  0.41289089  0.08161098  1
  C  C188  1  0.53891547  0.32676597  0.22738399  1
  H  H189  1  0.91345478  0.39790990  0.00213008  1
  H  H190  1  0.89365772  0.40818404  0.10812653  1
  H  H191  1  0.79111660  0.37717793  0.33707103  1
  C  C192  1  0.71745502  0.44894895  0.02042243  1
  O  O193  1  0.81565827  0.41178676  0.37782141  1
  C  C194  1  0.62571702  0.25912289  0.08510069  1
  H  H195  1  0.72101659  0.28629894  0.18663375  1
  O  O196  1  0.62008800  0.25453261  0.35369734  1
  C  C197  1  0.50161060  0.35580368  0.14413954  1
  Cu  Cu198  1  0.56515362  0.25429054  0.45241213  1
  O  O199  1  0.53301502  0.30297577  0.84720496  1
  O  O200  1  0.67116745  0.43897320  0.95751950  1
  O  O201  1  0.55375461  0.34375634  0.52637136  1
  C  C202  1  0.95091620  0.39721468  0.80289290  1
  C  C203  1  0.53700809  0.46013364  0.77489958  1
  Cu  Cu204  1  0.64232366  0.34531447  0.90567985  1
  H  H205  1  0.94121609  0.32445326  0.66605332  1
  O  O206  1  0.85633523  0.41717723  0.79325001  1
  H  H207  1  0.62012870  0.42174351  0.63384296  1
  H  H208  1  0.61229366  0.43009190  0.77363206  1
  C  C209  1  0.54988502  0.46612705  0.62868098  1
  H  H210  1  0.86091708  0.49233704  0.90190067  1
  C  C211  1  0.97236741  0.30824248  0.78661850  1
  H  H212  1  0.82167311  0.27831047  0.75271654  1
  H  H213  1  0.51903766  0.30410677  0.69240547  1
  C  C214  1  0.87791232  0.25017192  0.79395483  1
  H  H215  1  0.83369222  0.70499229  0.00536966  1
  H  H216  1  0.78782225  0.53418874  0.47354792  1
  H  H217  1  0.71968655  0.60375070  0.07164908  1
  H  H218  1  0.76495275  0.53543935  0.14060827  1
  C  C219  1  0.81007657  0.50014948  0.02638045  1
  C  C220  1  0.79014234  0.56975526  0.08837270  1
  C  C221  1  0.96903660  0.73290731  0.39756136  1
  C  C222  1  0.85246149  0.71032321  0.40786780  1
  H  H223  1  0.73807879  0.61984293  0.36863612  1
  C  C224  1  0.82487124  0.63610293  0.35796203  1
  H  H225  1  0.97140815  0.54232518  0.17656343  1
  C  C226  1  0.87279879  0.53928671  0.46906025  1
  C  C227  1  0.88557011  0.62765002  0.10175093  1
  C  C228  1  0.87004828  0.68825793  0.16208851  1
  H  H229  1  0.83842722  0.64260236  0.29315139  1
  H  H230  1  0.96188980  0.72550852  0.03449800  1
  C  C231  1  0.89174840  0.55495508  0.37840413  1
  C  C232  1  0.83057040  0.68594896  0.49183526  1
  C  C233  1  0.90524135  0.67283929  0.02525325  1
  C  C234  1  0.98217352  0.57047153  0.12047517  1
  O  O235  1  0.93583285  0.72215407  0.19647049  1
  H  H236  1  0.50531862  0.62580939  0.09763155  1
  O  O237  1  0.77648202  0.72417024  0.16253691  1
  C  C238  1  0.99846626  0.50543548  0.05700753  1
  H  H239  1  0.74839486  0.66165548  0.49146532  1
  H  H240  1  0.64790478  0.72793803  0.09138887  1
  C  C241  1  0.52201141  0.70985294  0.95803766  1
  H  H242  1  0.76802581  0.57394941  0.92803197  1
  O  O243  1  0.70557816  0.55336198  0.75086197  1
  C  C244  1  0.93105516  0.65405987  0.87967494  1
  C  C245  1  0.92678121  0.60786541  0.96033954  1
  O  O246  1  0.87923273  0.66327719  0.63829369  1
  O  O247  1  0.91319296  0.60578201  0.82034332  1
  C  C248  1  0.83637802  0.54056915  0.94968412  1
  H  H249  1  0.57774185  0.65591205  0.96653547  1
  Cu  Cu250  1  0.83290449  0.50188159  0.72390910  1
  O  O251  1  0.63537130  0.64155312  0.66974897  1
  Cu  Cu252  1  0.75892395  0.70747058  0.67068934  1
  C  C253  1  0.89350873  0.59882808  0.59906690  1
  H  H254  1  0.56013985  0.50568823  0.57536550  1
  C  C255  1  0.63004154  0.57540672  0.70690316  1
  C  C256  1  0.90586844  0.61142528  0.51585820  1
  C  C257  1  0.53899492  0.52089653  0.70435896  1
  O  O258  1  0.87767835  0.52664482  0.62538189  1
  H  H259  1  0.83629965  0.74575591  0.52630889  1
  O  O260  1  0.95511503  0.72540500  0.87404334  1
  H  H261  1  0.52972598  0.50089022  0.82517189  1
  H  H262  1  0.50247936  0.71018790  0.89231780  1
  O  O263  1  0.56427773  0.78498336  0.23517368  1
  O  O264  1  0.82200615  0.85323705  0.39947434  1
  C  C265  1  0.58524880  0.77848344  0.07766027  1
  H  H266  1  0.97592324  0.94241744  0.34482925  1
  Cu  Cu267  1  0.70069267  0.75455153  0.24675852  1
  C  C268  1  0.78593203  0.78357097  0.38683217  1
  H  H269  1  0.61987792  0.83593597  0.10404795  1
  O  O270  1  0.70006021  0.76646620  0.35458250  1
  H  H271  1  0.99753500  0.78738881  0.43151349  1
  H  H272  1  0.97766279  0.75444498  0.33776945  1
  C  C273  1  0.59183717  0.94112783  0.71839430  1
  O  O274  1  0.72815415  0.82170904  0.65861832  1
  C  C275  1  0.59322921  0.92127926  0.63201142  1
  Cu  Cu276  1  0.70918817  0.98136304  0.87629267  1
  C  C277  1  0.67630232  0.86502711  0.61204168  1
  O  O278  1  0.64344139  0.87874342  0.90091957  1
  H  H279  1  0.58766686  0.87556877  0.74613179  1
  C  C280  1  0.65713105  0.81969141  0.95199553  1
  Cu  Cu281  1  0.83041779  0.89303872  0.50956148  1
  O  O282  1  0.70024815  0.86778220  0.54223916  1
  C  C283  1  0.56130588  0.79152684  0.99443723  1
  H  H284  1  0.66369013  0.97318846  0.73648592  1
  O  O285  1  0.96692781  0.91571952  0.50057594  1
  O  O286  1  0.74126859  0.79428631  0.96733202  1
  H  H287  1  0.59245788  0.98802691  0.51932301  1
