# generated using pymatgen
data_ZnH8C14(N2O)2
_symmetry_space_group_name_H-M   'P 1'
_cell_length_a   11.91847314
_cell_length_b   16.32916737
_cell_length_c   28.71434559
_cell_angle_alpha   90.00000000
_cell_angle_beta   90.00000000
_cell_angle_gamma   90.00000000
_symmetry_Int_Tables_number   1
_chemical_formula_structural   ZnH8C14(N2O)2
_chemical_formula_sum   'Zn16 H128 C224 N64 O32'
_cell_volume   5588.34983671
_cell_formula_units_Z   16
loop_
 _symmetry_equiv_pos_site_id
 _symmetry_equiv_pos_as_xyz
  1  'x, y, z'
loop_
 _atom_site_type_symbol
 _atom_site_label
 _atom_site_symmetry_multiplicity
 _atom_site_fract_x
 _atom_site_fract_y
 _atom_site_fract_z
 _atom_site_occupancy
  H  H0  1  0.07816809  0.45957077  0.13767774  1
  N  N1  1  0.35963279  0.22191129  0.11198622  1
  N  N2  1  0.30860827  0.11762148  0.10266309  1
  C  C3  1  0.11403392  0.28853779  0.06463096  1
  C  C4  1  0.09649980  0.27268298  0.11177706  1
  H  H5  1  0.04940084  0.29132803  0.03863306  1
  O  O6  1  0.17494294  0.29002323  0.20411829  1
  N  N7  1  0.27006346  0.09078343  0.13826552  1
  C  C8  1  0.32403706  0.28553057  0.08881017  1
  C  C9  1  0.22838457  0.28385589  0.05390933  1
  C  C10  1  0.09823865  0.29025533  0.22957242  1
  N  N11  1  0.49037029  0.31982342  0.13729633  1
  H  H12  1  0.42735287  0.22081700  0.24439329  1
  C  C13  1  0.14110796  0.47765678  0.20837425  1
  H  H14  1  0.16965188  0.26558138  0.13567053  1
  N  N15  1  0.38972622  0.35156715  0.09764979  1
  Zn  Zn16  1  0.39369380  0.46195106  0.07091309  1
  H  H17  1  0.10228632  0.42364625  0.22223161  1
  C  C18  1  0.42031815  0.46912079  0.20390607  1
  H  H19  1  0.34831702  0.49730228  0.18187176  1
  C  C20  1  0.39994909  0.41652105  0.24180007  1
  N  N21  1  0.46456144  0.24954898  0.14818044  1
  N  N22  1  0.01897604  0.01014786  0.14598765  1
  C  C23  1  0.13841408  0.49520773  0.16033234  1
  H  H24  1  0.00924986  0.14575333  0.05839445  1
  N  N25  1  0.49315422  0.48341117  0.02062331  1
  H  H26  1  0.36082756  0.25505225  0.00500830  1
  C  C27  1  0.26751994  0.26414338  0.00862965  1
  C  C28  1  0.48683853  0.37004302  0.26355999  1
  C  C29  1  0.10427536  0.47285562  0.36024793  1
  H  H30  1  0.26669778  0.17485018  0.39663841  1
  H  H31  1  0.29191819  0.30116188  0.36842373  1
  H  H32  1  0.02312359  0.05945242  0.32669667  1
  C  C33  1  0.24411702  0.17293530  0.47351047  1
  C  C34  1  0.20890881  0.30292070  0.30166746  1
  H  H35  1  0.30093194  0.12333064  0.48338659  1
  C  C36  1  0.21636749  0.29531519  0.34808700  1
  C  C37  1  0.10327023  0.48055588  0.31332458  1
  C  C38  1  0.43584991  0.16434659  0.31155389  1
  H  H39  1  0.28437646  0.31027623  0.27946948  1
  C  C40  1  0.22751265  0.20177768  0.42858797  1
  C  C41  1  0.11483986  0.28072526  0.37557350  1
  C  C42  1  0.13077234  0.25534490  0.42519570  1
  C  C43  1  0.10092491  0.28904914  0.28005855  1
  C  C44  1  0.05492637  0.28081718  0.46107730  1
  C  C45  1  0.18166904  0.49946893  0.43847821  1
  C  C46  1  0.49923788  0.32086990  0.34904199  1
  O  O47  1  0.11115607  0.46767881  0.45932247  1
  C  C48  1  0.47654324  0.30534107  0.30048126  1
  O  O49  1  0.46956622  0.11302520  0.43192964  1
  H  H50  1  0.03783289  0.43678677  0.37653257  1
  C  C51  1  0.44422534  0.22949291  0.28043083  1
  H  H52  1  0.03485156  0.45218914  0.29260259  1
  C  C53  1  0.49493804  0.25298002  0.37893553  1
  C  C54  1  0.46406123  0.17927761  0.35744195  1
  H  H55  1  0.39658304  0.10567810  0.30092468  1
  C  C56  1  0.45966387  0.10507305  0.38974412  1
  O  O57  1  0.42745501  0.03893388  0.37273477  1
  C  C58  1  0.00548674  0.27241667  0.35476075  1
  C  C59  1  0.00183630  0.27745328  0.30627739  1
  H  H60  1  0.31202643  0.40769441  0.25414839  1
  N  N61  1  0.17538675  0.16863848  0.68003029  1
  H  H62  1  0.17451099  0.44524498  0.69594126  1
  Zn  Zn63  1  0.03391733  0.19117138  0.63692821  1
  N  N64  1  0.26520383  0.13512910  0.67931781  1
  C  C65  1  0.07302133  0.24797312  0.50533117  1
  C  C66  1  0.16903582  0.49319944  0.62265574  1
  Zn  Zn67  1  0.32673047  0.07000775  0.62148416  1
  N  N68  1  0.26264278  0.09030352  0.56096626  1
  C  C69  1  0.25026100  0.42767458  0.60632245  1
  C  C70  1  0.16837387  0.19385273  0.51081831  1
  H  H71  1  0.17585494  0.41323747  0.53458567  1
  C  C72  1  0.41668781  0.32153414  0.57610098  1
  N  N73  1  0.03874051  0.32128485  0.63561691  1
  C  C74  1  0.32693608  0.34032655  0.54611494  1
  C  C75  1  0.34238897  0.40825666  0.63658078  1
  N  N76  1  0.09649919  0.12836747  0.58298667  1
  C  C77  1  0.17945197  0.14257677  0.55261953  1
  C  C78  1  0.24089667  0.39429348  0.55962171  1
  C  C79  1  0.42740783  0.35857116  0.62098019  1
  H  H80  1  0.35556883  0.43674484  0.67146054  1
  H  H81  1  0.01402408  0.25437578  0.53191971  1
  Zn  Zn82  1  0.07339425  0.01761093  0.61181244  1
  H  H83  1  0.45725412  0.24517596  0.68057226  1
  H  H84  1  0.32678637  0.31952954  0.50874554  1
  C  C85  1  0.14305165  0.49315472  0.67167386  1
  C  C86  1  0.46652059  0.20321776  0.71187356  1
  H  H87  1  0.43961929  0.47721896  0.52798998  1
  H  H88  1  0.49979258  0.34297023  0.64325095  1
  N  N89  1  0.49956256  0.08872428  0.62309745  1
  H  H90  1  0.20144194  0.19836836  0.81457929  1
  C  C91  1  0.44405010  0.17756287  0.79418277  1
  H  H92  1  0.36421119  0.36405974  0.87496248  1
  O  O93  1  0.13641966  0.35143525  0.77783151  1
  C  C94  1  0.43833580  0.21500258  0.87748539  1
  H  H95  1  0.15321614  0.39179143  0.86538806  1
  C  C96  1  0.38763890  0.22987236  0.92137166  1
  C  C97  1  0.27388808  0.23917949  0.92641405  1
  C  C98  1  0.35323587  0.41367510  0.90133767  1
  C  C99  1  0.37472440  0.20020276  0.83723381  1
  H  H100  1  0.12035940  0.24338983  0.88927068  1
  C  C101  1  0.06415386  0.30587749  0.77085961  1
  C  C102  1  0.21066987  0.22996980  0.88582856  1
  H  H103  1  0.44687403  0.23244420  0.95185860  1
  C  C104  1  0.25845794  0.20550132  0.84295680  1
  O  O105  1  0.21240468  0.25744450  0.97255654  1
  C  C106  1  0.04813757  0.48611201  0.89205875  1
  C  C107  1  0.43206521  0.42025427  0.93659558  1
  H  H108  1  0.00962948  0.41931631  0.80345056  1
  H  H109  1  0.34844467  0.05419419  0.84674012  1
  O  O110  1  0.27549505  0.00049251  0.77586219  1
  H  H111  1  0.40102413  0.04530259  0.93513048  1
  C  C112  1  0.04101624  0.03957781  0.76873433  1
  C  C113  1  0.05121858  0.01844126  0.81658058  1
  C  C114  1  0.15927178  0.44750832  0.88540501  1
  C  C115  1  0.26018107  0.46874216  0.90690181  1
  C  C116  1  0.42511515  0.22703598  0.75315256  1
  H  H117  1  0.37191016  0.28150972  0.75739270  1
  H  H118  1  0.12128010  0.05621656  0.75093798  1
  H  H119  1  0.13026031  0.02772944  0.83538415  1
  C  C120  1  0.48973295  0.44926440  0.98203798  1
  Zn  Zn121  1  0.20173035  0.97783738  0.15426224  1
  C  C122  1  0.23431442  0.86773214  0.22950920  1
  C  C123  1  0.24314415  0.61171221  0.22092277  1
  Zn  Zn124  1  0.01890103  0.85032220  0.17427686  1
  N  N125  1  0.22443970  0.59011077  0.00817234  1
  C  C126  1  0.11648120  0.85806740  0.03481488  1
  H  H127  1  0.28860502  0.68299315  0.15806748  1
  N  N128  1  0.22561206  0.88979847  0.10731870  1
  N  N129  1  0.14689520  0.63703705  0.01291990  1
  C  C130  1  0.19790551  0.56560717  0.14496874  1
  N  N131  1  0.28210315  0.89813160  0.19114081  1
  C  C132  1  0.31253622  0.89719476  0.01956936  1
  N  N133  1  0.12173532  0.63557095  0.07334512  1
  N  N134  1  0.46842224  0.74921206  0.13164519  1
  N  N135  1  0.12716317  0.88050596  0.23208539  1
  C  C136  1  0.24960666  0.62898692  0.17347042  1
  C  C137  1  0.13985976  0.85285778  0.08500187  1
  N  N138  1  0.07111389  0.81271737  0.11319777  1
  Zn  Zn139  1  0.35092686  0.83485869  0.13892310  1
  C  C140  1  0.20875748  0.87886582  0.00215540  1
  H  H141  1  0.33152854  0.88930928  0.05539954  1
  N  N142  1  0.25760159  0.54615229  0.06299451  1
  C  C143  1  0.19249095  0.58140811  0.09264236  1
  H  H144  1  0.42279843  0.79707787  0.21251430  1
  C  C145  1  0.19699323  0.53700362  0.23854590  1
  C  C146  1  0.00655891  0.84343873  0.01869751  1
  H  H147  1  0.27882969  0.65404997  0.24493202  1
  C  C148  1  0.40526848  0.78991021  0.24891951  1
  C  C149  1  0.18641598  0.51353231  0.38798869  1
  N  N150  1  0.29820624  0.88819587  0.48504555  1
  C  C151  1  0.07062301  0.69783137  0.46481469  1
  C  C152  1  0.27214581  0.56142384  0.31895532  1
  N  N153  1  0.07313310  0.88918060  0.29157989  1
  C  C154  1  0.34193186  0.77192048  0.34586841  1
  C  C155  1  0.46638399  0.73636115  0.27660240  1
  C  C156  1  0.42495849  0.72093699  0.32351741  1
  H  H157  1  0.21137476  0.85395286  0.33144302  1
  C  C158  1  0.49560375  0.66371609  0.39867186  1
  H  H159  1  0.33366737  0.76968949  0.38478568  1
  H  H160  1  0.47484694  0.72117851  0.41602564  1
  C  C161  1  0.28155458  0.82272050  0.31566204  1
  H  H162  1  0.11692325  0.64257514  0.45988846  1
  N  N163  1  0.31555736  0.95398063  0.46957304  1
  C  C164  1  0.30967693  0.60618731  0.46818173  1
  C  C165  1  0.48341374  0.65310156  0.35010118  1
  C  C166  1  0.30531953  0.82811200  0.26595287  1
  O  O167  1  0.33391072  0.67508762  0.47249266  1
  H  H168  1  0.33339143  0.59669284  0.29800205  1
  H  H169  1  0.05619345  0.73461916  0.33763360  1
  O  O170  1  0.29121272  0.53394789  0.46446183  1
  C  C171  1  0.18958744  0.52562318  0.29056224  1
  H  H172  1  0.34647241  0.57972343  0.39113927  1
  C  C173  1  0.28355001  0.55020588  0.36651058  1
  C  C174  1  0.00380592  0.67885271  0.34387698  1
  C  C175  1  0.29761522  0.68670263  0.67712002  1
  C  C176  1  0.27091423  0.90533488  0.63889609  1
  N  N177  1  0.09363380  0.94027867  0.56043880  1
  H  H178  1  0.19913898  0.78645379  0.70467722  1
  H  H179  1  0.13842025  0.71913280  0.53355563  1
  C  C180  1  0.45745464  0.72890135  0.62297836  1
  H  H181  1  0.25005771  0.63640327  0.69749119  1
  C  C182  1  0.08858011  0.55939900  0.69366699  1
  C  C183  1  0.40769857  0.56220841  0.58835587  1
  N  N184  1  0.31525201  0.95198854  0.60585565  1
  C  C185  1  0.44043992  0.58514990  0.63541900  1
  C  C186  1  0.04300353  0.62178442  0.66256534  1
  H  H187  1  0.33323758  0.59506420  0.57262162  1
  C  C188  1  0.05500843  0.61831456  0.61317362  1
  H  H189  1  0.06899589  0.56125399  0.73143438  1
  N  N190  1  0.17757606  0.93650462  0.65422487  1
  H  H191  1  0.13180003  0.54909443  0.55530725  1
  C  C192  1  0.04645046  0.86815894  0.55897298  1
  C  C193  1  0.26666351  0.76791200  0.67962393  1
  C  C194  1  0.42477902  0.80981418  0.62364633  1
  C  C195  1  0.32209309  0.82586920  0.64847085  1
  C  C196  1  0.39581908  0.66907568  0.64847528  1
  C  C197  1  0.12078822  0.55495433  0.59294696  1
  Zn  Zn198  1  0.25068058  0.96825679  0.54153975  1
  C  C199  1  0.03247399  0.82001487  0.51381860  1
  H  H200  1  0.46220364  0.85817572  0.60002470  1
  C  C201  1  0.08587327  0.74329556  0.50643700  1
  Zn  Zn202  1  0.03305964  0.87837029  0.66880857  1
  C  C203  1  0.46327605  0.50349035  0.56122130  1
  H  H204  1  0.01507956  0.66429628  0.59007427  1
  C  C205  1  0.01139641  0.69802751  0.68809506  1
  N  N206  1  0.03349152  0.70476039  0.73171702  1
  N  N207  1  0.01948689  0.83327359  0.59738865  1
  N  N208  1  0.00258752  0.84756551  0.73994398  1
  C  C209  1  0.35046931  0.83806575  0.90877589  1
  H  H210  1  0.40901300  0.68529837  0.86674179  1
  C  C211  1  0.28514320  0.92996456  0.79049405  1
  H  H212  1  0.10148585  0.58842069  0.93822694  1
  C  C213  1  0.32560091  0.92338887  0.84285861  1
  C  C214  1  0.04270121  0.82684966  0.93048222  1
  C  C215  1  0.40433264  0.90216718  0.98607527  1
  C  C216  1  0.32212398  0.84564115  0.86197285  1
  O  O217  1  0.21555509  0.64455628  0.82128903  1
  C  C218  1  0.37269812  0.91124175  0.93359997  1
  H  H219  1  0.49029630  0.91603565  0.78367051  1
  H  H220  1  0.10165479  0.77454971  0.93413775  1
  H  H221  1  0.29572764  0.79313001  0.84078830  1
  O  O222  1  0.26528006  0.87324151  0.76362527  1
  H  H223  1  0.19754104  0.88378824  0.96499882  1
  C  C224  1  0.24713049  0.65489342  0.78734177  1
  H  H225  1  0.35909542  0.77711171  0.92674239  1
  H  H226  1  0.47554758  0.67929202  0.78511700  1
  H  H227  1  0.08778480  0.84702731  0.85938453  1
  C  C228  1  0.34699306  0.99603309  0.86600159  1
  C  C229  1  0.03456208  0.55585659  0.91825624  1
  C  C230  1  0.38004172  0.98962952  0.91292348  1
  H  H231  1  0.28015939  0.51888105  0.93290529  1
  C  C232  1  0.03401096  0.86647809  0.88866415  1
  N  N233  1  0.00009420  0.78799785  0.76530510  1
  C  C234  1  0.49171232  0.66017283  0.85738803  1
  C  C235  1  0.92545188  0.17675970  0.05736458  1
  H  H236  1  0.77922811  0.32828794  0.11930377  1
  H  H237  1  0.61987194  0.27747560  0.05936886  1
  C  C238  1  0.89535875  0.24034883  0.08891568  1
  C  C239  1  0.59917017  0.38804481  0.24559726  1
  N  N240  1  0.92150858  0.44443801  0.13530933  1
  C  C241  1  0.84582877  0.15842721  0.02297294  1
  H  H242  1  0.84851535  0.25576721  0.17305920  1
  N  N243  1  0.83060793  0.43068125  0.15183618  1
  C  C244  1  0.74786002  0.20295472  0.02447799  1
  C  C245  1  0.94160803  0.26041070  0.17190478  1
  C  C246  1  0.61933420  0.43482554  0.20639396  1
  C  C247  1  0.78914324  0.28048082  0.09237922  1
  C  C248  1  0.70892669  0.25938965  0.05785984  1
  C  C249  1  0.96274875  0.42183688  0.00550843  1
  C  C250  1  0.98668262  0.25808842  0.12713054  1
  H  H251  1  0.70997894  0.44027576  0.19743913  1
  O  O252  1  0.97033229  0.27286189  0.21285572  1
  O  O253  1  0.89282855  0.42717166  0.02804154  1
  O  O254  1  0.81139800  0.05665888  0.22885094  1
  C  C255  1  0.53022533  0.47997458  0.18498106  1
  H  H256  1  0.93079358  0.25976685  0.37521080  1
  C  C257  1  0.65662822  0.46640656  0.42298856  1
  H  H258  1  0.73754161  0.30440520  0.42524681  1
  O  O259  1  0.82691703  0.43077871  0.29180852  1
  C  C260  1  0.80370425  0.11890831  0.47793642  1
  H  H261  1  0.98007341  0.11203577  0.40916016  1
  H  H262  1  0.66647643  0.35731079  0.26555732  1
  C  C263  1  0.80422174  0.14922168  0.39185293  1
  C  C264  1  0.85210904  0.08558114  0.30742269  1
  C  C265  1  0.94111378  0.08588232  0.33895778  1
  C  C266  1  0.74569502  0.12067178  0.31364268  1
  C  C267  1  0.76721120  0.26204315  0.45329406  1
  C  C268  1  0.78856907  0.17745071  0.44123224  1
  C  C269  1  0.91397131  0.11960376  0.38232864  1
  C  C270  1  0.71991983  0.15608001  0.35558928  1
  H  H271  1  0.64018889  0.18739086  0.35975913  1
  H  H272  1  0.68738168  0.12340056  0.28503722  1
  H  H273  1  0.92038075  0.27841717  0.28533732  1
  O  O274  1  0.68586768  0.40452890  0.40116928  1
  H  H275  1  0.79491664  0.05466815  0.47083258  1
  C  C276  1  0.87797627  0.04877305  0.25922853  1
  H  H277  1  0.63061435  0.47331786  0.33217978  1
  H  H278  1  0.81353456  0.49019856  0.37003233  1
  O  O279  1  0.65997512  0.47247334  0.46491436  1
  C  C280  1  0.87147123  0.49813737  0.28015518  1
  H  H281  1  0.50808929  0.38413730  0.35973819  1
  H  H282  1  0.98750732  0.32682652  0.45397834  1
  H  H283  1  0.51040846  0.25696289  0.41765989  1
  O  O284  1  0.96435315  0.00134456  0.25295420  1
  C  C285  1  0.77551939  0.29117271  0.49837175  1
  C  C286  1  0.56313992  0.10370672  0.65922613  1
  Zn  Zn287  1  0.70716575  0.41572812  0.59882354  1
  N  N288  1  0.58098453  0.05254810  0.57714068  1
  N  N289  1  0.71432483  0.28631890  0.70283498  1
  H  H290  1  0.58074404  0.18838112  0.59610450  1
  N  N291  1  0.84672441  0.33757575  0.59829832  1
  C  C292  1  0.94055136  0.05391248  0.69161964  1
  C  C293  1  0.85302122  0.26331187  0.58072712  1
  C  C294  1  0.59209227  0.49641750  0.63019851  1
  N  N295  1  0.96969516  0.37568522  0.62611652  1
  H  H296  1  0.84307544  0.10918310  0.55166105  1
  H  H297  1  0.76484630  0.35692612  0.50686189  1
  N  N298  1  0.93533320  0.13278245  0.68009649  1
  O  O299  1  0.58527547  0.24490455  0.60015076  1
  Zn  Zn300  1  0.78609342  0.18501136  0.66831211  1
  N  N301  1  0.66909463  0.10657051  0.64667679  1
  N  N302  1  0.88362609  0.20847202  0.61182226  1
  N  N303  1  0.67604929  0.06942688  0.58838896  1
  C  C304  1  0.56043318  0.47460541  0.58584267  1
  C  C305  1  0.81596936  0.23535877  0.53437040  1
  C  C306  1  0.51759368  0.12457771  0.70744997  1
  C  C307  1  0.82068318  0.14944697  0.52309623  1
  O  O308  1  0.51883375  0.23413995  0.52272757  1
  C  C309  1  0.50818136  0.26784172  0.55831487  1
  N  N310  1  0.69515429  0.29347750  0.74409745  1
  H  H311  1  0.58281998  0.01576110  0.74689178  1
  C  C312  1  0.93708752  0.03180668  0.74312177  1
  C  C313  1  0.53904994  0.07506961  0.74720553  1
  C  C314  1  0.82772303  0.40389948  0.80393988  1
  C  C315  1  0.83613814  0.44904142  0.89910990  1
  O  O316  1  0.68217663  0.12870461  0.95878095  1
  H  H317  1  0.65301061  0.42048059  0.89583254  1
  C  C318  1  0.50894967  0.10410415  0.79271622  1
  H  H319  1  0.52913043  0.21238738  0.87635881  1
  C  C320  1  0.72896072  0.40424926  0.83083274  1
  C  C321  1  0.61756898  0.38659080  0.80521881  1
  O  O322  1  0.53740652  0.38306589  0.83077914  1
  H  H323  1  0.53018583  0.07304614  0.82616714  1
  C  C324  1  0.93355699  0.45509533  0.87064123  1
  C  C325  1  0.93168661  0.42408296  0.82438983  1
  H  H326  1  0.83659054  0.47151252  0.93553456  1
  C  C327  1  0.73169382  0.42499817  0.87808331  1
  N  N328  1  0.52181513  0.39132742  0.95588142  1
  O  O329  1  0.57130236  0.22322731  0.98444420  1
  O  O330  1  0.61779751  0.38306322  0.76191835  1
  C  C331  1  0.65567517  0.18426428  0.98563814  1
  H  H332  1  0.82824824  0.38475835  0.76610208  1
  H  H333  1  0.81341189  0.00104930  0.90936196  1
  H  H334  1  0.85529412  0.10328708  0.99950304  1
  O  O335  1  0.99429156  0.25964873  0.76373184  1
  C  C336  1  0.83640725  0.00742502  0.76559280  1
  H  H337  1  0.75237224  0.00066868  0.75046852  1
  C  C338  1  0.55971497  0.52984034  0.14219637  1
  N  N339  1  0.53972761  0.80674958  0.12840022  1
  Zn  Zn340  1  0.81948589  0.56304518  0.13476620  1
  N  N341  1  0.94791004  0.96152369  0.15694248  1
  N  N342  1  0.78119727  0.67294248  0.16523506  1
  C  C343  1  0.80190552  0.75164627  0.23476562  1
  Zn  Zn344  1  0.63732364  0.69794838  0.12301092  1
  H  H345  1  0.84679635  0.88264630  0.22896944  1
  C  C346  1  0.84598016  0.72486957  0.18777085  1
  N  N347  1  0.64350269  0.58149544  0.14528569  1
  N  N348  1  0.93737503  0.74931644  0.16553499  1
  N  N349  1  0.86217584  0.63411160  0.08026811  1
  C  C350  1  0.79629293  0.66080114  0.04667332  1
  N  N351  1  0.69279624  0.66812496  0.05684349  1
  H  H352  1  0.93878364  0.82515876  0.04191794  1
  Zn  Zn353  1  0.99926366  0.70226519  0.10659838  1
  Zn  Zn354  1  0.56263790  0.58790827  0.03913539  1
  H  H355  1  0.52178630  0.87862986  0.04121511  1
  N  N356  1  0.50249688  0.53866274  0.10284317  1
  O  O357  1  0.88365877  0.51813046  0.23907890  1
  C  C358  1  0.50935136  0.88545689  0.00273448  1
  C  C359  1  0.61633213  0.83067717  0.46616506  1
  H  H360  1  0.57980963  0.92674856  0.36348922  1
  C  C361  1  0.71732806  0.71508895  0.30947710  1
  C  C362  1  0.97272619  0.85199998  0.47461934  1
  C  C363  1  0.58817968  0.52707336  0.35014153  1
  H  H364  1  0.90871519  0.83324877  0.40321396  1
  H  H365  1  0.99476877  0.64381189  0.27013582  1
  C  C366  1  0.61013363  0.88238364  0.38913231  1
  C  C367  1  0.56955556  0.88970423  0.43601553  1
  C  C368  1  0.69711041  0.77025964  0.45624610  1
  C  C369  1  0.68593245  0.81935154  0.37698755  1
  H  H370  1  0.72374935  0.72272855  0.48436648  1
  H  H371  1  0.69566284  0.66291824  0.33336526  1
  H  H372  1  0.78912740  0.91724147  0.30967569  1
  H  H373  1  0.88059440  0.58563206  0.43769380  1
  H  H374  1  0.50004203  0.92812418  0.44562994  1
  C  C375  1  0.75725146  0.69240447  0.26622062  1
  H  H376  1  0.53498378  0.58088529  0.28686477  1
  C  C377  1  0.78015250  0.85366968  0.29753649  1
  C  C378  1  0.72682846  0.79581387  0.32700945  1
  H  H379  1  0.79261118  0.71516927  0.40205439  1
  N  N380  1  0.99961158  0.93596590  0.30060878  1
  C  C381  1  0.73116296  0.76218703  0.40987340  1
  C  C382  1  0.90120853  0.59570145  0.40099306  1
  C  C383  1  0.90543050  0.56097570  0.31871323  1
  C  C384  1  0.86768870  0.54383142  0.36394983  1
  C  C385  1  0.99590038  0.72677218  0.42870902  1
  C  C386  1  0.59240433  0.53592776  0.39840040  1
  H  H387  1  0.54920963  0.60181006  0.46324064  1
  C  C388  1  0.54176386  0.59919233  0.42445666  1
  C  C389  1  0.97103574  0.62893104  0.30759481  1
  C  C390  1  0.53235370  0.58588741  0.32525280  1
  C  C391  1  0.96799866  0.66575493  0.39033249  1
  C  C392  1  0.95430186  0.81068792  0.43365749  1
  H  H393  1  0.93354319  0.91117272  0.47931562  1
  H  H394  1  0.54585881  0.70921462  0.26449006  1
  C  C395  1  0.80982535  0.83276444  0.25154211  1
  H  H396  1  0.75143885  0.62717059  0.25809501  1
  C  C397  1  0.62927872  0.88449713  0.71357117  1
  C  C398  1  0.65491147  0.69202791  0.71815048  1
  Zn  Zn399  1  0.87679632  0.78345789  0.61212749  1
  O  O400  1  0.69858958  0.85270933  0.68382236  1
  H  H401  1  0.60606047  0.74662219  0.72908798  1
  N  N402  1  0.68388894  0.89505995  0.62715027  1
  N  N403  1  0.85053288  0.67082489  0.58776820  1
  C  C404  1  0.78953234  0.61072371  0.60598363  1
  O  O405  1  0.52348700  0.86185922  0.53567467  1
  O  O406  1  0.62229555  0.75075903  0.53857007  1
  H  H407  1  0.65465836  0.72516345  0.64487106  1
  N  N408  1  0.75882515  0.86702261  0.60396972  1
  N  N409  1  0.96483497  0.76727661  0.66945930  1
  C  C410  1  0.68271202  0.68100860  0.67186943  1
  C  C411  1  0.75285111  0.61583086  0.65872250  1
  N  N412  1  0.83597287  0.57589725  0.52537817  1
  N  N413  1  0.78254989  0.54416513  0.57869341  1
  C  C414  1  0.78105662  0.55107562  0.68874699  1
  N  N415  1  0.86872777  0.64636389  0.52834647  1
  O  O416  1  0.54107691  0.91233040  0.70099695  1
  C  C417  1  0.58651862  0.81340573  0.51819160  1
  H  H418  1  0.53239578  0.70583517  0.60453655  1
  H  H419  1  0.56067238  0.56258268  0.69450003  1
  C  C420  1  0.53335582  0.54856596  0.65990758  1
  C  C421  1  0.73441121  0.55650206  0.73451171  1
  N  N422  1  0.96558455  0.99717987  0.66115198  1
  H  H423  1  0.83442231  0.50032981  0.67731957  1
  H  H424  1  0.81388148  0.80027954  0.74985375  1
  H  H425  1  0.74999984  0.50808941  0.76018299  1
  H  H426  1  0.68422526  0.75014329  0.99434556  1
  C  C427  1  0.97540392  0.85772452  0.96994656  1
  C  C428  1  0.87922247  0.95937180  0.91678971  1
  H  H429  1  0.78528391  0.55621544  0.82315739  1
  C  C430  1  0.70238510  0.82440852  0.91045556  1
  C  C431  1  0.77918517  0.76112772  0.92927022  1
  C  C432  1  0.56133084  0.62807021  0.89290996  1
  C  C433  1  0.58252279  0.86508561  0.84298597  1
  C  C434  1  0.95768689  0.93566301  0.88170536  1
  C  C435  1  0.91012548  0.62152413  0.97371256  1
  C  C436  1  0.75578494  0.82982229  0.77527600  1
  C  C437  1  0.67021951  0.59238230  0.88021351  1
  H  H438  1  0.84931669  0.73665518  0.90743103  1
  C  C439  1  0.52697794  0.65396750  0.81151271  1
  H  H440  1  0.85365350  0.79063855  0.83408691  1
  O  O441  1  0.60858657  0.86806495  0.98621996  1
  C  C442  1  0.62571004  0.86431590  0.93942696  1
  C  C443  1  0.70630667  0.58383995  0.83435121  1
  C  C444  1  0.69158937  0.83619186  0.85725867  1
  H  H445  1  0.55449977  0.90200609  0.92584167  1
  C  C446  1  0.77306561  0.81464471  0.82257653  1
  C  C447  1  0.56957073  0.88898624  0.79604326  1
  H  H448  1  0.81653532  0.92469406  0.98395132  1
  C  C449  1  0.76013622  0.73025150  0.97317166  1
  C  C450  1  0.63424728  0.62318918  0.80015914  1
  C  C451  1  0.83188089  0.67215201  0.99698800  1
  C  C452  1  0.65243360  0.86533371  0.76358181  1
  O  O453  1  0.93061848  0.61205327  0.93074785  1
  H  H454  1  0.77124876  0.96201684  0.82868608  1
  C  C455  1  0.88455353  0.91677565  0.95914304  1
  H  H456  1  0.72614920  0.57505860  0.90957543  1
  C  C457  1  0.67453830  0.62734624  0.75041068  1
  H  H458  1  0.96887397  0.57941005  0.99302286  1
  H  H459  1  0.51451834  0.87645848  0.86725292  1
  C  C460  1  0.84988949  0.97862352  0.81172063  1
  N  N461  1  0.50214891  0.65219606  0.97923634  1
  C  C462  1  0.95383960  0.97641669  0.83459414  1
  N  N463  1  0.52752892  0.64191503  0.93877312  1
