# generated using pymatgen
data_CuH2(C3N4)2
_symmetry_space_group_name_H-M   'P 1'
_cell_length_a   15.48061776
_cell_length_b   12.01930508
_cell_length_c   16.69683077
_cell_angle_alpha   90.00000000
_cell_angle_beta   90.00000000
_cell_angle_gamma   90.00000000
_symmetry_Int_Tables_number   1
_chemical_formula_structural   CuH2(C3N4)2
_chemical_formula_sum   'Cu12 H24 C72 N96'
_cell_volume   3106.71698172
_cell_formula_units_Z   12
loop_
 _symmetry_equiv_pos_site_id
 _symmetry_equiv_pos_as_xyz
  1  'x, y, z'
loop_
 _atom_site_type_symbol
 _atom_site_label
 _atom_site_symmetry_multiplicity
 _atom_site_fract_x
 _atom_site_fract_y
 _atom_site_fract_z
 _atom_site_occupancy
  N  N0  1  0.42245496  0.09252656  0.20211492  1
  N  N1  1  0.07697774  0.13523766  0.02818323  1
  N  N2  1  0.46115058  0.22669999  0.21623864  1
  N  N3  1  0.46549373  0.02209769  0.12136785  1
  N  N4  1  0.41820292  0.01817801  0.02694980  1
  N  N5  1  0.01763758  0.25196138  0.04813626  1
  C  C6  1  0.32992817  0.37210790  0.38749724  1
  C  C7  1  0.09987982  0.44097279  0.38784779  1
  N  N8  1  0.36006371  0.08629277  0.32787318  1
  C  C9  1  0.17656705  0.36970870  0.38319814  1
  N  N10  1  0.45653334  0.39128046  0.29865339  1
  H  H11  1  0.12172282  0.20825835  0.41832572  1
  C  C12  1  0.33711828  0.26337398  0.41798050  1
  C  C13  1  0.25428560  0.42839302  0.36668375  1
  C  C14  1  0.27328682  0.06706556  0.43915217  1
  C  C15  1  0.18251039  0.25369947  0.40713801  1
  C  C16  1  0.40862297  0.43933528  0.35093712  1
  H  H17  1  0.39921338  0.22110942  0.42933701  1
  C  C18  1  0.26079542  0.19956294  0.42528937  1
  N  N19  1  0.32234939  0.01805988  0.38671782  1
  N  N20  1  0.07528569  0.13256649  0.29429574  1
  N  N21  1  0.23940405  0.00976457  0.49885312  1
  N  N22  1  0.42915355  0.26092937  0.27784472  1
  N  N23  1  0.04052267  0.49520899  0.39132639  1
  N  N24  1  0.01820676  0.13447794  0.49984763  1
  N  N25  1  0.06356334  0.05590176  0.48393305  1
  C  C26  1  0.37303685  0.04326253  0.25588036  1
  N  N27  1  0.11395247  0.05926175  0.25686985  1
  C  C28  1  0.15552961  0.17644226  0.57769731  1
  N  N29  1  0.07481792  0.21694109  0.57123497  1
  N  N30  1  0.15243339  0.07040619  0.54333338  1
  C  C31  1  0.31501304  0.18291375  0.64115629  1
  H  H32  1  0.16417596  0.37938036  0.61860102  1
  H  H33  1  0.32786165  0.09958300  0.61332763  1
  C  C34  1  0.22133579  0.34119069  0.64843716  1
  C  C35  1  0.23305121  0.22933930  0.62541538  1
  C  C36  1  0.27141741  0.39671355  0.70628451  1
  C  C37  1  0.37529260  0.25159431  0.68764834  1
  C  C38  1  0.46347588  0.20693123  0.69315256  1
  N  N39  1  0.03000679  0.45519167  0.60806003  1
  N  N40  1  0.02960891  0.35972347  0.63321738  1
  C  C41  1  0.35332238  0.35514562  0.72285661  1
  C  C42  1  0.01204162  0.04483724  0.72705305  1
  N  N43  1  0.05833023  0.21329640  0.91319499  1
  H  H44  1  0.18025270  0.12823400  0.80493430  1
  C  C45  1  0.16801342  0.03882453  0.91782811  1
  C  C46  1  0.20225636  0.05842673  0.84179677  1
  N  N47  1  0.04691862  0.23654449  0.79099242  1
  C  C48  1  0.09867967  0.13389001  0.95308596  1
  C  C49  1  0.03390540  0.14658682  0.76541648  1
  H  H50  1  0.40019236  0.40666989  0.75600824  1
  N  N51  1  0.00473101  0.29540344  0.98315579  1
  N  N52  1  0.48081642  0.01680349  0.98130480  1
  N  N53  1  0.29095115  0.60898520  0.07483612  1
  C  C54  1  0.12954158  0.83398511  0.12880871  1
  N  N55  1  0.22877262  0.71059640  0.03107911  1
  N  N56  1  0.12524512  0.77244596  0.06594432  1
  C  C57  1  0.21017290  0.83047740  0.18880647  1
  N  N58  1  0.03663906  0.96656674  0.22505536  1
  C  C59  1  0.33541504  0.92820342  0.24397926  1
  N  N60  1  0.05523986  0.89735053  0.13662769  1
  C  C61  1  0.26722072  0.92022625  0.18412701  1
  N  N62  1  0.36499817  0.62317897  0.05145565  1
  C  C63  1  0.21669780  0.74708073  0.24844508  1
  H  H64  1  0.16543078  0.95687480  0.03390686  1
  H  H65  1  0.25277489  0.99058198  0.14268855  1
  N  N66  1  0.03593860  0.80013113  0.00085933  1
  C  C67  1  0.28734220  0.69030372  0.38521255  1
  N  N68  1  0.09906876  0.72192269  0.38674664  1
  C  C69  1  0.34845074  0.84226290  0.30036630  1
  C  C70  1  0.28490039  0.75780186  0.30473045  1
  H  H71  1  0.39898939  0.85118528  0.34579583  1
  N  N72  1  0.21600772  0.68173938  0.42611978  1
  N  N73  1  0.35240916  0.63137070  0.42099255  1
  N  N74  1  0.04068092  0.65837789  0.37505906  1
  N  N75  1  0.42954750  0.54759125  0.37060785  1
  H  H76  1  0.25596288  0.50962062  0.33984039  1
  N  N77  1  0.49367567  0.61170258  0.30217976  1
  H  H78  1  0.16640165  0.68159291  0.25915433  1
  Cu  Cu79  1  0.37834020  0.76549553  0.58431143  1
  N  N80  1  0.47482493  0.60347885  0.63263355  1
  N  N81  1  0.21918371  0.73755418  0.66110618  1
  N  N82  1  0.28119796  0.83693064  0.61284069  1
  N  N83  1  0.30536348  0.96723142  0.66197219  1
  N  N84  1  0.23671791  0.59724064  0.51008857  1
  N  N85  1  0.31228386  0.56933082  0.50812246  1
  N  N86  1  0.26444137  0.69733202  0.71348630  1
  N  N87  1  0.48221568  0.68147980  0.58764213  1
  C  C88  1  0.28605119  0.96867495  0.72835652  1
  Cu  Cu89  1  0.23765498  0.85835039  0.51296739  1
  N  N90  1  0.48699449  0.97455736  0.53244521  1
  N  N91  1  0.01468933  0.64340549  0.66841786  1
  N  N92  1  0.00301959  0.54255820  0.68513679  1
  C  C93  1  0.00055315  0.72561648  0.73462797  1
  C  C94  1  0.02635375  0.93036392  0.74922030  1
  C  C95  1  0.23916252  0.50222698  0.74768075  1
  C  C96  1  0.28851414  0.87954098  0.86204911  1
  C  C97  1  0.19564199  0.96094601  0.97414327  1
  C  C98  1  0.28273170  0.77666355  0.99064490  1
  C  C99  1  0.25451411  0.88115873  0.93993510  1
  H  H100  1  0.32682623  0.81019291  0.83559143  1
  H  H101  1  0.07671988  0.90967299  0.79245633  1
  N  N102  1  0.21600749  0.58699392  0.77232932  1
  N  N103  1  0.36040887  0.74048437  0.99386216  1
  C  C104  1  0.26292483  0.97546453  0.81206552  1
  N  N105  1  0.00476158  0.68078443  0.80387242  1
  N  N106  1  0.74313771  0.39494930  0.22071406  1
  H  H107  1  0.67738868  0.20931042  0.12793940  1
  C  C108  1  0.60319232  0.06942689  0.18293859  1
  C  C109  1  0.65946419  0.16464608  0.18299406  1
  N  N110  1  0.57523015  0.02893329  0.03650041  1
  H  H111  1  0.88788637  0.01676661  0.08634633  1
  C  C112  1  0.54804853  0.04275644  0.11031514  1
  C  C113  1  0.95899892  0.01197419  0.24571637  1
  N  N114  1  0.80100538  0.27582492  0.47956295  1
  N  N115  1  0.82974645  0.25121447  0.41412608  1
  N  N116  1  0.96845600  0.10773932  0.28532982  1
  C  C117  1  0.61576584  0.05653016  0.32406544  1
  Cu  Cu118  1  0.72492328  0.40666159  0.48292342  1
  N  N119  1  0.79026066  0.34322012  0.33543695  1
  N  N120  1  0.58105789  0.11101887  0.47509347  1
  C  C121  1  0.67874626  0.14063182  0.33156328  1
  H  H122  1  0.70125330  0.17406275  0.39157096  1
  C  C123  1  0.57780876  0.03616343  0.41184822  1
  N  N124  1  0.56926814  0.25686538  0.44745346  1
  Cu  Cu125  1  0.55860859  0.47500324  0.47806113  1
  N  N126  1  0.81670976  0.48127094  0.33047904  1
  C  C127  1  0.58484690  0.00854407  0.25247623  1
  C  C128  1  0.73990411  0.31229080  0.27000783  1
  N  N129  1  0.58810500  0.32417559  0.49744180  1
  C  C130  1  0.69234073  0.19784314  0.25715833  1
  N  N131  1  0.76436482  0.08269376  0.56694017  1
  H  H132  1  0.94935464  0.15875380  0.64128752  1
  N  N133  1  0.79206515  0.46617319  0.64062551  1
  Cu  Cu134  1  0.62923989  0.26083227  0.61586352  1
  Cu  Cu135  1  0.60935423  0.06648285  0.67347209  1
  N  N136  1  0.70314585  0.14383620  0.64587858  1
  N  N137  1  0.64036287  0.37435106  0.69523904  1
  N  N138  1  0.53371460  0.18402080  0.70647121  1
  C  C139  1  0.82428884  0.03458720  0.58897454  1
  N  N140  1  0.76795500  0.16932000  0.73034118  1
  C  C141  1  0.95183056  0.06976632  0.66125956  1
  N  N142  1  0.85124451  0.40239443  0.63320980  1
  N  N143  1  0.55766801  0.45841312  0.68930421  1
  Cu  Cu144  1  0.87228114  0.30600734  0.72364647  1
  Cu  Cu145  1  0.73475938  0.44725905  0.74488028  1
  N  N146  1  0.98836732  0.34531580  0.73664507  1
  N  N147  1  0.51457716  0.06527385  0.55211340  1
  N  N148  1  0.73889027  0.22810283  0.78163382  1
  N  N149  1  0.85091774  0.46031208  0.81200923  1
  N  N150  1  0.83643851  0.43914929  0.88153400  1
  N  N151  1  0.72419103  0.42283302  0.90746698  1
  N  N152  1  0.66775885  0.30759358  0.94051577  1
  N  N153  1  0.59260945  0.32893459  0.92268365  1
  Cu  Cu154  1  0.62306910  0.27983693  0.78003557  1
  Cu  Cu155  1  0.97311192  0.46660853  0.79330371  1
  N  N156  1  0.58971614  0.46147361  0.88880238  1
  N  N157  1  0.68068967  0.02933321  0.88917846  1
  N  N158  1  0.67608378  0.03560044  0.99196800  1
  N  N159  1  0.98496757  0.86948310  0.03037103  1
  C  C160  1  0.70557994  0.87948522  0.16036209  1
  C  C161  1  0.75955303  0.94460198  0.10882215  1
  H  H162  1  0.64953968  0.83597682  0.13563309  1
  C  C163  1  0.86726454  0.96673144  0.21172132  1
  C  C164  1  0.74367322  0.97777815  0.02127326  1
  C  C165  1  0.84485241  0.97854123  0.12986226  1
  C  C166  1  0.73506823  0.86105459  0.23798500  1
  N  N167  1  0.69554663  0.77054220  0.37716721  1
  N  N168  1  0.66292324  0.53581884  0.49624673  1
  C  C169  1  0.68039721  0.78695655  0.29767046  1
  N  N170  1  0.52478986  0.95641763  0.43442602  1
  H  H171  1  0.83358197  0.90907664  0.32874279  1
  N  N172  1  0.79008845  0.82984026  0.41664836  1
  N  N173  1  0.61196295  0.73756277  0.27224747  1
  Cu  Cu174  1  0.63896603  0.69955963  0.46345599  1
  C  C175  1  0.81119460  0.91703753  0.26792173  1
  N  N176  1  0.54600597  0.66848365  0.33914081  1
  H  H177  1  0.53200163  0.94288219  0.25380604  1
  N  N178  1  0.80581096  0.80211967  0.48703977  1
  N  N179  1  0.79915167  0.50837428  0.26223346  1
  Cu  Cu180  1  0.74577334  0.60483175  0.56815737  1
  N  N181  1  0.66923163  0.84010298  0.61262123  1
  C  C182  1  0.68672166  0.80921321  0.67543548  1
  H  H183  1  0.86495843  0.81400691  0.63271953  1
  C  C184  1  0.91218493  0.87395907  0.65511429  1
  N  N185  1  0.71927962  0.75022144  0.53626723  1
  C  C186  1  0.97723876  0.84718480  0.71430390  1
  N  N187  1  0.57198721  0.52619429  0.63630766  1
  C  C188  1  0.89445706  0.98642789  0.63716438  1
  C  C189  1  0.82022307  0.73939611  0.85110903  1
  C  C190  1  0.65753796  0.67208969  0.78614587  1
  H  H191  1  0.80289772  0.61106676  0.94007467  1
  N  N192  1  0.89718890  0.86347684  0.96324668  1
  C  C193  1  0.90344848  0.78349641  0.90617805  1
  N  N194  1  0.79765499  0.95222366  0.96012827  1
  C  C195  1  0.78867144  0.80296768  0.78858432  1
  N  N196  1  0.98480264  0.75427614  0.89318744  1
  C  C197  1  0.77713053  0.65092453  0.88605171  1
  C  C198  1  0.69955577  0.61578721  0.84543386  1
  C  C199  1  0.70819670  0.76257551  0.75262357  1
  H  H200  1  0.82422680  0.88429426  0.77366150  1
  H  H201  1  0.59422595  0.65322793  0.75980326  1
  N  N202  1  0.75247167  0.99162135  0.87058080  1
  C  C203  1  0.66852345  0.50112582  0.88172890  1
