# generated using pymatgen
data_CuH7C15O4
_symmetry_space_group_name_H-M   'P 1'
_cell_length_a   10.88114015
_cell_length_b   10.38912673
_cell_length_c   51.68945910
_cell_angle_alpha   90.00000000
_cell_angle_beta   90.00000000
_cell_angle_gamma   90.00000000
_symmetry_Int_Tables_number   1
_chemical_formula_structural   CuH7C15O4
_chemical_formula_sum   'Cu18 H126 C270 O72'
_cell_volume   5843.26302051
_cell_formula_units_Z   18
loop_
 _symmetry_equiv_pos_site_id
 _symmetry_equiv_pos_as_xyz
  1  'x, y, z'
loop_
 _atom_site_type_symbol
 _atom_site_label
 _atom_site_symmetry_multiplicity
 _atom_site_fract_x
 _atom_site_fract_y
 _atom_site_fract_z
 _atom_site_occupancy
  C  C0  1  0.07665451  0.07042272  0.10801073  1
  C  C1  1  0.24038829  0.19165266  0.06054086  1
  H  H2  1  0.00926954  0.10204824  0.06931928  1
  C  C3  1  0.23787742  0.21580498  0.00928297  1
  H  H4  1  0.17575008  0.24335156  0.19397413  1
  H  H5  1  0.07795108  0.17637947  0.11246042  1
  H  H6  1  0.37220154  0.04371637  0.07453868  1
  C  C7  1  0.32052797  0.13454017  0.07996061  1
  H  H8  1  0.15006547  0.19269283  0.23780406  1
  C  C9  1  0.25912167  0.30007792  0.11137325  1
  H  H10  1  0.21811665  0.32363525  0.00904107  1
  C  C11  1  0.16493538  0.33962709  0.09293103  1
  C  C12  1  0.23762399  0.14375346  0.03273777  1
  H  H13  1  0.46151228  0.31911693  0.15208532  1
  H  H14  1  0.08712814  0.32377543  0.05354968  1
  C  C15  1  0.37170052  0.36315019  0.15467427  1
  H  H16  1  0.44951698  0.44808556  0.18952989  1
  C  C17  1  0.17752345  0.00104467  0.15018273  1
  C  C18  1  0.33147799  0.19246712  0.10447900  1
  C  C19  1  0.32535407  0.09307006  0.22718819  1
  C  C20  1  0.24686450  0.17237860  0.24315099  1
  C  C21  1  0.27050152  0.36832454  0.13601960  1
  C  C22  1  0.43931740  0.04845042  0.23581052  1
  H  H23  1  0.39681708  0.15481676  0.11875253  1
  C  C24  1  0.19385590  0.14551287  0.18804259  1
  H  H25  1  0.08640686  0.18556349  0.15455917  1
  C  C26  1  0.15569105  0.28791437  0.06795990  1
  C  C27  1  0.14479839  0.11840640  0.16437462  1
  C  C28  1  0.37019437  0.43963631  0.17680139  1
  O  O29  1  0.01792562  0.33733474  0.21597888  1
  H  H30  1  0.39138608  0.42879359  0.22698671  1
  C  C31  1  0.06067168  0.41946880  0.10173140  1
  C  C32  1  0.27187468  0.05319728  0.20116745  1
  C  C33  1  0.16905712  0.44768884  0.14413860  1
  C  C34  1  0.06373141  0.46911699  0.12635583  1
  C  C35  1  0.03878412  0.03140533  0.08342029  1
  O  O36  1  0.45534096  0.47602770  0.06005491  1
  C  C37  1  0.24066902  0.00524505  0.03178681  1
  O  O38  1  0.28145650  0.40136754  0.35494181  1
  H  H39  1  0.35533322  0.28447711  0.42684939  1
  C  C40  1  0.32693197  0.30704043  0.36641494  1
  C  C41  1  0.36806046  0.48670319  0.49663343  1
  C  C42  1  0.30051686  0.21338002  0.26587150  1
  H  H43  1  0.12846480  0.27086406  0.33703048  1
  O  O44  1  0.28578481  0.32253830  0.30531533  1
  C  C45  1  0.30202235  0.06245963  0.45416399  1
  C  C46  1  0.23808374  0.30456569  0.28292269  1
  C  C47  1  0.16763596  0.45860967  0.46108117  1
  C  C48  1  0.46968098  0.13196689  0.48509712  1
  O  O49  1  0.13526020  0.34558014  0.27643482  1
  C  C50  1  0.03083877  0.48080722  0.37554877  1
  C  C51  1  0.41540860  0.17290494  0.27481780  1
  O  O52  1  0.41915918  0.31430428  0.38198602  1
  C  C53  1  0.48878640  0.09516907  0.25898638  1
  C  C54  1  0.25228336  0.19124179  0.36535498  1
  Cu  Cu55  1  0.34068470  0.46860458  0.32433660  1
  C  C56  1  0.15153223  0.18923858  0.34829536  1
  H  H57  1  0.23084000  0.06543338  0.43874923  1
  C  C58  1  0.18233312  0.37022286  0.48199612  1
  C  C59  1  0.41044488  0.26588755  0.44503795  1
  H  H60  1  0.11159044  0.29891405  0.48595778  1
  H  H61  1  0.09767721  0.44509988  0.44787729  1
  C  C62  1  0.29367852  0.08246767  0.38018609  1
  H  H63  1  0.45628466  0.22313488  0.29102066  1
  C  C64  1  0.39064980  0.16095394  0.46240908  1
  H  H65  1  0.37264793  0.09530773  0.39135610  1
  C  C66  1  0.09045938  0.07327855  0.34610755  1
  C  C67  1  0.36583123  0.25943838  0.56638021  1
  C  C68  1  0.34800344  0.12949490  0.56319072  1
  C  C69  1  0.29006630  0.28956242  0.52270502  1
  O  O70  1  0.44277626  0.42834770  0.58973823  1
  C  C71  1  0.24489832  0.16240667  0.52222293  1
  C  C72  1  0.09786279  0.40069069  0.57555110  1
  C  C73  1  0.27164490  0.08073822  0.54296584  1
  H  H74  1  0.16716030  0.47252777  0.56931469  1
  C  C75  1  0.01662236  0.34443978  0.55781122  1
  C  C76  1  0.43500325  0.31081524  0.58891859  1
  H  H77  1  0.33712317  0.04794129  0.69147786  1
  H  H78  1  0.04760110  0.32767630  0.72226262  1
  C  C79  1  0.10496406  0.35921578  0.60102712  1
  C  C80  1  0.07774567  0.33888718  0.74251380  1
  H  H81  1  0.23637506  0.22970513  0.70992847  1
  H  H82  1  0.19065053  0.12569257  0.50513635  1
  H  H83  1  0.36103330  0.44282721  0.54881523  1
  C  C84  1  0.33355678  0.34188408  0.54657431  1
  C  C85  1  0.27311548  0.24559727  0.72918717  1
  O  O86  1  0.47633365  0.23270022  0.60620128  1
  C  C87  1  0.19357068  0.41659507  0.62127387  1
  C  C88  1  0.39561189  0.19838875  0.73445144  1
  O  O89  1  0.18555119  0.37610022  0.64250809  1
  H  H90  1  0.37530951  0.07235650  0.57999363  1
  C  C91  1  0.02242172  0.26827834  0.60996916  1
  C  C92  1  0.43378583  0.07884174  0.69263390  1
  H  H93  1  0.03490895  0.23571333  0.62978294  1
  C  C94  1  0.20566527  0.30599524  0.74965168  1
  H  H95  1  0.44223786  0.49064628  0.51151814  1
  C  C96  1  0.48288421  0.14449096  0.71403107  1
  C  C97  1  0.45475002  0.02090192  0.50013478  1
  C  C98  1  0.27905238  0.38792683  0.50103640  1
  C  C99  1  0.37261802  0.26407869  0.78092902  1
  H  H100  1  0.29131204  0.32475854  0.83072434  1
  C  C101  1  0.44048164  0.21129424  0.76069274  1
  H  H102  1  0.01349431  0.10179695  0.75693736  1
  O  O103  1  0.23844348  0.36056450  0.96511911  1
  C  C104  1  0.25254970  0.31812363  0.77554913  1
  C  C105  1  0.30593280  0.01144017  0.82461913  1
  H  H106  1  0.41153866  0.26406975  0.80075989  1
  C  C107  1  0.00523256  0.39461957  0.76126172  1
  C  C108  1  0.05512393  0.42191532  0.78675271  1
  O  O109  1  0.26202135  0.18641890  0.93996069  1
  H  H110  1  0.14139453  0.12206186  0.85009272  1
  C  C111  1  0.17561395  0.37698986  0.79611351  1
  Cu  Cu112  1  0.12735028  0.11330597  0.92629604  1
  C  C113  1  0.15510439  0.04077871  0.78568506  1
  C  C114  1  0.20464401  0.37263576  0.82383711  1
  C  C115  1  0.18937071  0.05237471  0.81305455  1
  C  C116  1  0.25003735  0.23770814  0.96158660  1
  C  C117  1  0.25477097  0.15671745  0.98495003  1
  O  O118  1  0.08202174  0.27531690  0.91009874  1
  C  C119  1  0.10892740  0.12131880  0.82919911  1
  C  C120  1  0.04176776  0.09954519  0.77772953  1
  H  H121  1  0.07522513  0.22513738  0.86703343  1
  C  C122  1  0.12498526  0.43192771  0.84098088  1
  C  C123  1  0.01434676  0.49522880  0.83132300  1
  H  H124  1  0.32644482  0.03626206  0.84463351  1
  H  H125  1  0.14982074  0.43652629  0.86142650  1
  C  C126  1  0.27930563  0.01731151  0.98267394  1
  Cu  Cu127  1  0.25088911  0.48462104  0.93913231  1
  H  H128  1  0.31295144  0.70194764  0.16771265  1
  C  C129  1  0.07405725  0.76501986  0.03474687  1
  C  C130  1  0.12638122  0.96871224  0.12454844  1
  O  O131  1  0.34407441  0.66790671  0.06081192  1
  H  H132  1  0.14158625  0.73085859  0.20149015  1
  C  C133  1  0.21987030  0.74769198  0.13204889  1
  C  C134  1  0.10832106  0.80446395  0.09078127  1
  H  H135  1  0.07976633  0.56088969  0.17265301  1
  C  C136  1  0.19599510  0.69121642  0.21708221  1
  H  H137  1  0.11824000  0.68094142  0.04488886  1
  O  O138  1  0.04980072  0.90012639  0.23284277  1
  H  H139  1  0.13707221  0.71061642  0.08477679  1
  C  C140  1  0.26145500  0.97429840  0.00664543  1
  C  C141  1  0.26509469  0.77393859  0.15601955  1
  C  C142  1  0.28866071  0.92880858  0.19175243  1
  C  C143  1  0.15264598  0.83867923  0.11647657  1
  C  C144  1  0.05106678  0.89661131  0.07526764  1
  C  C145  1  0.24514742  0.90577715  0.16549964  1
  C  C146  1  0.39826561  0.57230177  0.05999991  1
  H  H147  1  0.24450286  0.64909618  0.12398051  1
  H  H148  1  0.34484002  0.85562143  0.20264398  1
  C  C149  1  0.20249160  0.74646880  0.24195640  1
  C  C150  1  0.27167447  0.58307145  0.21098455  1
  O  O151  1  0.17420166  0.56688000  0.00764962  1
  C  C152  1  0.07063351  0.76476608  0.00840595  1
  H  H153  1  0.21397189  0.94632805  0.05008020  1
  C  C154  1  0.34445970  0.52280529  0.22970966  1
  C  C155  1  0.12117771  0.85960512  0.24874724  1
  C  C156  1  0.02352474  0.87712060  0.04695878  1
  C  C157  1  0.47323206  0.78794698  0.00865093  1
  H  H158  1  0.44186367  0.74213908  0.02671459  1
  C  C159  1  0.26567657  0.51383521  0.18527529  1
  C  C160  1  0.16527405  0.51250940  0.16855347  1
  O  O161  1  0.15477432  0.70389075  0.31262061  1
  C  C162  1  0.24884635  0.65536238  0.43687633  1
  C  C163  1  0.07426820  0.61593039  0.31170664  1
  O  O164  1  0.14216417  0.90551701  0.27183624  1
  H  H165  1  0.06945091  0.59808261  0.42420277  1
  C  C166  1  0.21630451  0.97589807  0.38032486  1
  H  H167  1  0.04901348  0.78285790  0.39195808  1
  C  C168  1  0.27838293  0.69598830  0.26073099  1
  C  C169  1  0.45700903  0.66748049  0.46992710  1
  C  C170  1  0.34734970  0.75015316  0.43322861  1
  H  H171  1  0.15309744  0.64628359  0.36540561  1
  C  C172  1  0.13504360  0.77170096  0.40347446  1
  H  H173  1  0.42475739  0.89859309  0.40853651  1
  H  H174  1  0.28781875  0.73910707  0.28026512  1
  C  C175  1  0.23356475  0.86190287  0.39908392  1
  C  C176  1  0.14277362  0.66813905  0.42121635  1
  C  C177  1  0.34460752  0.84240392  0.41288550  1
  C  C178  1  0.45741802  0.75012596  0.44954007  1
  C  C179  1  0.11737400  0.97461474  0.36297507  1
  C  C180  1  0.42200118  0.51618707  0.27343445  1
  C  C181  1  0.03784996  0.54087037  0.33351305  1
  C  C182  1  0.34162349  0.58397937  0.25367407  1
  C  C183  1  0.36193441  0.57243132  0.47528400  1
  C  C184  1  0.37423300  0.91973487  0.49165099  1
  Cu  Cu185  1  0.10347181  0.85902566  0.30375553  1
  H  H186  1  0.05822819  0.88587791  0.36255927  1
  C  C187  1  0.25439143  0.55908211  0.45742819  1
  C  C188  1  0.30763023  0.95759936  0.47041030  1
  C  C189  1  0.08471521  0.56956311  0.35966128  1
  O  O190  1  0.40922425  0.55600668  0.29723262  1
  O  O191  1  0.02507293  0.58528951  0.28951107  1
  Cu  Cu192  1  0.11088687  0.50497791  0.26139798  1
  H  H193  1  0.00547721  0.67846369  0.49418328  1
  C  C194  1  0.41122874  0.80438433  0.74019202  1
  C  C195  1  0.48182506  0.65846618  0.70439805  1
  H  H196  1  0.41354300  0.69761535  0.69019020  1
  O  O197  1  0.11947057  0.86376475  0.59478968  1
  H  H198  1  0.28732668  0.84392582  0.70805857  1
  O  O199  1  0.45066225  0.75833335  0.58245727  1
  C  C200  1  0.05386244  0.58755309  0.68865063  1
  O  O201  1  0.27715328  0.85881536  0.55112714  1
  C  C202  1  0.22407091  0.95074914  0.53987360  1
  H  H203  1  0.06572124  0.79507643  0.64260151  1
  O  O204  1  0.36451358  0.94454576  0.64831398  1
  O  O205  1  0.44434088  0.55078785  0.65731243  1
  H  H206  1  0.12362996  0.54341002  0.67636084  1
  C  C207  1  0.19542003  0.58751950  0.72625123  1
  O  O208  1  0.13764562  0.92816216  0.52388555  1
  C  C209  1  0.49328302  0.69443091  0.73062334  1
  C  C210  1  0.01679841  0.53429342  0.52451217  1
  H  H211  1  0.05982729  0.60729403  0.53768162  1
  H  H212  1  0.27316124  0.55403757  0.71530622  1
  C  C213  1  0.30867264  0.86423924  0.72816013  1
  Cu  Cu214  1  0.28933694  0.82719903  0.58667478  1
  C  C215  1  0.07249394  0.60956482  0.71538549  1
  C  C216  1  0.22944826  0.94380037  0.74203390  1
  Cu  Cu217  1  0.43827581  0.51209899  0.62208120  1
  C  C218  1  0.02697720  0.79350368  0.58863347  1
  H  H219  1  0.14767124  0.98280929  0.73199940  1
  H  H220  1  0.36919077  0.82789178  0.50025904  1
  C  C221  1  0.47159152  0.96717533  0.64994283  1
  O  O222  1  0.26270020  0.51427639  0.61614535  1
  C  C223  1  0.20132108  0.72238407  0.87632077  1
  C  C224  1  0.09314880  0.78083537  0.83797361  1
  H  H225  1  0.23411329  0.63422789  0.83825812  1
  O  O226  1  0.27407918  0.62595877  0.91696141  1
  C  C227  1  0.43013199  0.84132362  0.76669441  1
  Cu  Cu228  1  0.46174962  0.59328321  0.86111277  1
  H  H229  1  0.23022308  0.67938826  0.80409609  1
  C  C230  1  0.14443839  0.71319151  0.79416218  1
  C  C231  1  0.00157401  0.72626252  0.75649252  1
  C  C232  1  0.26204627  0.62596402  0.89259755  1
  C  C233  1  0.13517704  0.81237793  0.89153287  1
  C  C234  1  0.21132900  0.62305339  0.75183628  1
  H  H235  1  0.44462078  0.70140099  0.94136310  1
  C  C236  1  0.12106853  0.68867936  0.76808470  1
  C  C237  1  0.35251090  0.92170859  0.78176192  1
  H  H238  1  0.15446329  0.81887149  0.91157407  1
  C  C239  1  0.18585694  0.70669954  0.84956568  1
  O  O240  1  0.32297133  0.54218712  0.87968768  1
  C  C241  1  0.04483986  0.88525271  0.87959053  1
  O  O242  1  0.11114016  0.64132049  0.96986729  1
  H  H243  1  0.31107227  0.96514455  0.96376620  1
  C  C244  1  0.24181371  0.97286842  0.76914003  1
  C  C245  1  0.05639125  0.77468937  0.80963629  1
  C  C246  1  0.12536203  0.64769724  0.99557046  1
  C  C247  1  0.02080186  0.86539782  0.85299500  1
  H  H248  1  0.29936842  0.59513388  0.76114489  1
  H  H249  1  0.03602830  0.59542699  0.88013378  1
  O  O250  1  0.01091099  0.99400435  0.91725874  1
  H  H251  1  0.46735429  0.90417268  0.81751390  1
  O  O252  1  0.48703149  0.89895353  0.91354953  1
  C  C253  1  0.38194048  0.94032209  0.80876350  1
  Cu  Cu254  1  0.02771025  0.51966384  0.94723431  1
  C  C255  1  0.45331375  0.74320925  0.98352838  1
  C  C256  1  0.46678279  0.76516574  0.95800397  1
  C  C257  1  0.61627189  0.41414962  0.12042678  1
  C  C258  1  0.67119451  0.00049799  0.07303601  1
  C  C259  1  0.64629355  0.20849126  0.09752508  1
  H  H260  1  0.92101864  0.05427330  0.04343018  1
  C  C261  1  0.75333936  0.23344729  0.13938305  1
  C  C262  1  0.54755080  0.10005888  0.03166279  1
  H  H263  1  0.97769730  0.43118836  0.08946708  1
  C  C264  1  0.61570985  0.13162650  0.07437040  1
  C  C265  1  0.69221705  0.35506081  0.14068347  1
  H  H266  1  0.80266845  0.19047649  0.15664919  1
  C  C267  1  0.77867098  0.02534712  0.11595103  1
  C  C268  1  0.72930899  0.15251606  0.11759905  1
  C  C269  1  0.71845351  0.42719579  0.16568768  1
  C  C270  1  0.55134186  0.18119830  0.05245229  1
  C  C271  1  0.82249125  0.38461867  0.17975921  1
  H  H272  1  0.52041344  0.36896119  0.08537083  1
  O  O273  1  0.84648677  0.14441537  0.00319423  1
  C  C274  1  0.59171877  0.33423848  0.09981165  1
  H  H275  1  0.88147058  0.30667703  0.17350746  1
  C  C276  1  0.95342832  0.42559556  0.22063187  1
  O  O277  1  0.61227171  0.05067911  0.17685906  1
  H  H278  1  0.51049465  0.12803468  0.01337597  1
  C  C279  1  0.85400189  0.45826307  0.20202768  1
  H  H280  1  0.50022681  0.27625575  0.05000081  1
  O  O281  1  0.78009007  0.49505582  0.05482961  1
  H  H282  1  0.50342687  0.00022496  0.22388884  1
  C  C283  1  0.69639055  0.00579309  0.17192638  1
  O  O284  1  0.75399648  0.27735446  0.32284191  1
  C  C285  1  0.63376561  0.46033793  0.48261190  1
  O  O286  1  0.54827657  0.11049345  0.36641744  1
  O  O287  1  0.74322320  0.24254558  0.36537847  1
  Cu  Cu288  1  0.79549937  0.13049295  0.30193438  1
  C  C289  1  0.94635183  0.44595389  0.33088647  1
  O  O290  1  0.63522201  0.10419915  0.29250415  1
  H  H291  1  0.90705974  0.43329952  0.31138603  1
  C  C292  1  0.84504232  0.27418450  0.47075824  1
  C  C293  1  0.56485478  0.34794509  0.47576377  1
  C  C294  1  0.79876372  0.29084368  0.34525067  1
  C  C295  1  0.79916339  0.32531945  0.44827312  1
  H  H296  1  0.72280999  0.45346973  0.40113203  1
  H  H297  1  0.82104673  0.16908712  0.47749258  1
  H  H298  1  0.74829049  0.25413968  0.43491210  1
  C  C299  1  0.89676213  0.37842641  0.35155749  1
  C  C300  1  0.94957712  0.38332783  0.37703043  1
  C  C301  1  0.99875811  0.05676784  0.32588288  1
  C  C302  1  0.90472192  0.36296456  0.48843778  1
  H  H303  1  0.92389587  0.32699155  0.39392820  1
  Cu  Cu304  1  0.58226650  0.27596713  0.37069074  1
  O  O305  1  0.94925805  0.14687890  0.31232982  1
  C  C306  1  0.82048992  0.45590683  0.44003913  1
  C  C307  1  0.60270865  0.05300680  0.27148994  1
  C  C308  1  0.58607009  0.03479374  0.38480063  1
  C  C309  1  0.92940009  0.49829587  0.48225194  1
  O  O310  1  0.57278869  0.04777842  0.40761921  1
  C  C311  1  0.54663838  0.23738048  0.49324878  1
  H  H312  1  0.51407133  0.43866411  0.43854883  1
  C  C313  1  0.50057741  0.35771940  0.45164887  1
  O  O314  1  0.50282303  0.44285231  0.26849873  1
  C  C315  1  0.68716343  0.14835373  0.69561972  1
  Cu  Cu316  1  0.78492674  0.26184233  0.64645160  1
  O  O317  1  0.57170572  0.38904131  0.66641085  1
  O  O318  1  0.86881893  0.23473927  0.71337081  1
  H  H319  1  0.65910251  0.38784331  0.54922811  1
  H  H320  1  0.57767982  0.18233122  0.53418710  1
  C  C321  1  0.63892384  0.08199398  0.67414441  1
  H  H322  1  0.87353810  0.20073297  0.55447330  1
  C  C323  1  0.63156390  0.37992301  0.52822750  1
  O  O324  1  0.71758958  0.42985449  0.58159188  1
  O  O325  1  0.69405692  0.34858388  0.62057292  1
  C  C326  1  0.61533575  0.47144444  0.71532702  1
  C  C327  1  0.81686437  0.19604598  0.69511294  1
  C  C328  1  0.93346384  0.31491004  0.51377771  1
  O  O329  1  0.76069212  0.06702032  0.58863054  1
  C  C330  1  0.74100432  0.43124342  0.60402192  1
  C  C331  1  0.99337589  0.40000518  0.53122696  1
  C  C332  1  0.93870718  0.24977343  0.56722474  1
  C  C333  1  0.60930634  0.17674871  0.71590080  1
  C  C334  1  0.93608942  0.21017281  0.59322181  1
  O  O335  1  0.86957860  0.18771723  0.67254408  1
  H  H336  1  0.65011088  0.23626712  0.73230272  1
  H  H337  1  0.66131665  0.38158181  0.70880923  1
  C  C338  1  0.84601026  0.11570550  0.60203608  1
  H  H339  1  0.91359085  0.21739981  0.51865552  1
  O  O340  1  0.83822499  0.10801446  0.62657790  1
  H  H341  1  0.51223360  0.01478002  0.51809728  1
  Cu  Cu342  1  0.53360425  0.29968390  0.63586759  1
  C  C343  1  0.51702022  0.04535009  0.67321178  1
  C  C344  1  0.59011790  0.25890556  0.51910489  1
  C  C345  1  0.64259831  0.48363658  0.50959148  1
  H  H346  1  0.70122234  0.03526984  0.65989468  1
  C  C347  1  0.51825512  0.49394137  0.67248617  1
  C  C348  1  0.91427282  0.22811306  0.84165080  1
  H  H349  1  0.73991194  0.24141707  0.81991781  1
  C  C350  1  0.72632237  0.31808389  0.85832126  1
  C  C351  1  0.78647457  0.25987304  0.83787516  1
  C  C352  1  0.90599351  0.30234319  0.88525013  1
  H  H353  1  0.86800286  0.19007298  0.78840855  1
  Cu  Cu354  1  0.74105877  0.02746269  0.90719850  1
  C  C355  1  0.95656216  0.15704362  0.79495165  1
  O  O356  1  0.94044862  0.39686426  0.92749588  1
  C  C357  1  0.89273170  0.05588005  0.99171969  1
  O  O358  1  0.72585651  0.32827916  0.76286112  1
  C  C359  1  0.78523894  0.34456185  0.88166848  1
  O  O360  1  0.86860866  0.01532778  0.88622518  1
  O  O361  1  0.53990912  0.42865347  0.86800532  1
  H  H362  1  0.61218750  0.04731559  0.97719015  1
  H  H363  1  0.74210144  0.39423662  0.89783007  1
  C  C364  1  0.59568309  0.35759998  0.85103662  1
  H  H365  1  0.52889534  0.17034940  0.76720898  1
  O  O366  1  0.61589836  0.04075954  0.92953544  1
  O  O367  1  0.88690306  0.05167612  0.96644123  1
  O  O368  1  0.55576001  0.32057602  0.83082933  1
  C  C369  1  0.97486113  0.24337913  0.86557521  1
  C  C370  1  0.97554974  0.32904819  0.90834687  1
  H  H371  1  0.90853818  0.42299425  0.75640084  1
  C  C372  1  0.68898797  0.43938170  0.76429962  1
  C  C373  1  0.97947708  0.49308601  0.80542449  1
  C  C374  1  0.99257923  0.17143790  0.82144534  1
  H  H375  1  0.77172638  0.84989126  0.09231753  1
  C  C376  1  0.61238129  0.71321925  0.20768297  1
  H  H377  1  0.56448867  0.56145467  0.16467178  1
  C  C378  1  0.76463220  0.57700959  0.06991406  1
  C  C379  1  0.79001954  0.56596577  0.21073721  1
  H  H380  1  0.83466224  0.98431951  0.13122468  1
  H  H381  1  0.69649914  0.81900180  0.05076151  1
  H  H382  1  0.81851905  0.62191563  0.22776023  1
  C  C383  1  0.68089864  0.59486782  0.19709046  1
  O  O384  1  0.66721487  0.76805410  0.22710945  1
  O  O385  1  0.51037337  0.74184415  0.20081607  1
  O  O386  1  0.75472949  0.65981894  0.08442723  1
  C  C387  1  0.95876589  0.97005479  0.03425900  1
  C  C388  1  0.65877404  0.91689403  0.05091202  1
  C  C389  1  0.94981806  0.95175982  0.00756402  1
  C  C390  1  0.65309498  0.53589915  0.17373860  1
  H  H391  1  0.58289086  0.51214196  0.12135561  1
  C  C392  1  0.74575493  0.95210829  0.09482254  1
  C  C393  1  0.59421035  0.97181401  0.02975803  1
  H  H394  1  0.98726454  0.52606238  0.13449667  1
  O  O395  1  0.97773157  0.50377059  0.24103015  1
  C  C396  1  0.54933269  0.90268044  0.00509303  1
  C  C397  1  0.63982631  0.88613287  0.34959965  1
  C  C398  1  0.89686884  0.67622283  0.45115616  1
  H  H399  1  0.87636176  0.82174803  0.42124885  1
  C  C400  1  0.68072929  0.82936273  0.39522493  1
  C  C401  1  0.68191344  0.76337035  0.34289911  1
  H  H402  1  0.77416515  0.59323444  0.35444617  1
  O  O403  1  0.66593575  0.96897418  0.26075619  1
  C  C404  1  0.64174939  0.91146742  0.37547703  1
  H  H405  1  0.67195352  0.85904230  0.41553034  1
  O  O406  1  0.97521169  0.94367580  0.32137790  1
  C  C407  1  0.86265600  0.72376899  0.42723439  1
  H  H408  1  0.60524908  0.95481471  0.33427744  1
  C  C409  1  0.78801635  0.64160094  0.41086526  1
  C  C410  1  0.73189336  0.71180036  0.38785918  1
  C  C411  1  0.68180478  0.71972143  0.31458358  1
  C  C412  1  0.73381199  0.68198285  0.36092356  1
  O  O413  1  0.85014331  0.91152370  0.47950943  1
  O  O414  1  0.62485905  0.79475246  0.29832797  1
  H  H415  1  0.77416767  0.68811255  0.48462055  1
  Cu  Cu416  1  0.64230747  0.78865486  0.26112807  1
  O  O417  1  0.71966697  0.61600244  0.30900778  1
  H  H418  1  0.94532452  0.73929147  0.46471080  1
  H  H419  1  0.65307121  0.53428547  0.46877855  1
  H  H420  1  0.53657573  0.67237228  0.48299641  1
  C  C421  1  0.88261391  0.54673011  0.45794756  1
  H  H422  1  0.53569053  0.81106354  0.44601674  1
  C  C423  1  0.76841806  0.50953394  0.41579672  1
  C  C424  1  0.97795890  0.67545205  0.73089930  1
  H  H425  1  0.75254745  0.68063728  0.68611791  1
  C  C426  1  0.66451279  0.61925929  0.51783169  1
  C  C427  1  0.82481589  0.53438190  0.61334631  1
  H  H428  1  0.71460948  0.95955955  0.54481055  1
  C  C429  1  0.53365333  0.82553365  0.57158421  1
  C  C430  1  0.54207438  0.54696260  0.69795471  1
  C  C431  1  0.88069373  0.62578247  0.59764001  1
  C  C432  1  0.74184512  0.82795719  0.51604689  1
  Cu  Cu433  1  0.64193914  0.99024197  0.60827956  1
  C  C434  1  0.85754475  0.70188135  0.72046974  1
  C  C435  1  0.56429391  0.62481181  0.74866585  1
  H  H436  1  0.78115362  0.72729783  0.73265631  1
  O  O437  1  0.54550959  0.91535305  0.63349598  1
  C  C438  1  0.83174363  0.91831256  0.50222626  1
  C  C439  1  0.94706052  0.64027366  0.67849787  1
  C  C440  1  0.84378136  0.67394479  0.69432354  1
  C  C441  1  0.61369483  0.77915743  0.55045793  1
  O  O442  1  0.55690147  0.94206825  0.57794357  1
  C  C443  1  0.69685079  0.86837424  0.53929955  1
  H  H444  1  0.86495869  0.62864658  0.57613762  1
  C  C445  1  0.61891729  0.51080222  0.74067054  1
  C  C446  1  0.92660119  0.64147533  0.64910755  1
  C  C447  1  0.73034929  0.70943421  0.50320076  1
  C  C448  1  0.59724128  0.65499712  0.54030969  1
  H  H449  1  0.53783926  0.58870431  0.55158979  1
  C  C450  1  0.83937745  0.55155760  0.64020354  1
  O  O451  1  0.98834061  0.78823482  0.56542168  1
  C  C452  1  0.96615258  0.71309073  0.60799357  1
  Cu  Cu453  1  0.99483244  0.90974420  0.54052962  1
  C  C454  1  0.99615146  0.72812737  0.63407167  1
  C  C455  1  0.99013407  0.57926755  0.50025044  1
  H  H456  1  0.77647538  0.50124102  0.65380315  1
  O  O457  1  0.89115010  0.99391532  0.51720037  1
  H  H458  1  0.51539672  0.80507854  0.77613479  1
  H  H459  1  0.83384800  0.83222644  0.76458781  1
  H  H460  1  0.76756830  0.55048124  0.82095970  1
  Cu  Cu461  1  0.83819719  0.91009432  0.94712619  1
  H  H462  1  0.67054832  0.72517042  0.89313282  1
  C  C463  1  0.73371642  0.67965779  0.87963835  1
  C  C464  1  0.88125798  0.69265829  0.91577113  1
  O  O465  1  0.71149780  0.50983882  0.78348114  1
  C  C466  1  0.85275141  0.65454200  0.88863925  1
  O  O467  1  0.80040024  0.75479365  0.92847625  1
  C  C468  1  0.52770623  0.89089904  0.95790074  1
  C  C469  1  0.92074304  0.80245939  0.77234513  1
  C  C470  1  0.91660359  0.56181821  0.84803475  1
  O  O471  1  0.59149652  0.66504440  0.84472821  1
  C  C472  1  0.70186524  0.64650444  0.85392654  1
  C  C473  1  0.79631241  0.58276883  0.84016401  1
  H  H474  1  0.95026706  0.92630872  0.84409180  1
  H  H475  1  0.86881787  0.85168548  0.81213333  1
  C  C476  1  0.94349388  0.60171886  0.87331593  1
  C  C477  1  0.93761222  0.80868924  0.79970862  1
  C  C478  1  0.97292942  0.97830303  0.89435385  1
  O  O479  1  0.98116180  0.66371430  0.92516272  1
  H  H480  1  0.57443056  0.64950763  0.76895784  1
  C  C481  1  0.56839470  0.95271360  0.98033610  1
  H  H482  1  0.89315908  0.53406417  0.79709621  1
  C  C483  1  0.99832427  0.85127285  0.99337082  1
  C  C484  1  0.54258185  0.94282121  0.93148520  1
  H  H485  1  0.98762556  0.83584080  0.97252448  1
