# generated using pymatgen
data_Cu3H14(C5O2)6
_symmetry_space_group_name_H-M   'P 1'
_cell_length_a   23.96618604
_cell_length_b   12.16441214
_cell_length_c   12.23208959
_cell_angle_alpha   90.00000000
_cell_angle_beta   90.00000000
_cell_angle_gamma   90.00000000
_symmetry_Int_Tables_number   1
_chemical_formula_structural   Cu3H14(C5O2)6
_chemical_formula_sum   'Cu12 H56 C120 O48'
_cell_volume   3566.07691229
_cell_formula_units_Z   4
loop_
 _symmetry_equiv_pos_site_id
 _symmetry_equiv_pos_as_xyz
  1  'x, y, z'
loop_
 _atom_site_type_symbol
 _atom_site_label
 _atom_site_symmetry_multiplicity
 _atom_site_fract_x
 _atom_site_fract_y
 _atom_site_fract_z
 _atom_site_occupancy
  C  C0  1  0.09063647  0.18329362  0.37824416  1
  H  H1  1  0.18017044  0.35731441  0.30325595  1
  C  C2  1  0.14258243  0.42758883  0.06472106  1
  C  C3  1  0.21732563  0.33596996  0.25239741  1
  C  C4  1  0.04538111  0.16974704  0.46218798  1
  H  H5  1  0.17477250  0.21339410  0.15249457  1
  C  C6  1  0.09853518  0.35035961  0.05862326  1
  C  C7  1  0.05467350  0.35968578  0.13466405  1
  C  C8  1  0.04770561  0.44312539  0.21464926  1
  C  C9  1  0.21325611  0.25715507  0.16961666  1
  H  H10  1  0.01974020  0.30011256  0.13007280  1
  O  O11  1  0.12711222  0.25203194  0.36665317  1
  H  H12  1  0.09738699  0.12158149  0.31052103  1
  H  H13  1  0.23478019  0.27683827  0.44899771  1
  H  H14  1  0.17827498  0.43293978  0.00848701  1
  O  O15  1  0.20362720  0.11980949  0.00412287  1
  Cu  Cu16  1  0.16707797  0.11084597  0.87334065  1
  C  C17  1  0.16565940  0.01182328  0.56663240  1
  O  O18  1  0.05095779  0.19294574  0.98746545  1
  C  C19  1  0.16966735  0.42884064  0.63749030  1
  C  C20  1  0.18501732  0.07586650  0.65671655  1
  O  O21  1  0.14964170  0.10742589  0.72804487  1
  O  O22  1  0.23593744  0.09367637  0.67056549  1
  Cu  Cu23  1  0.02345655  0.12475647  0.87815557  1
  H  H24  1  0.12681569  0.45342218  0.66402321  1
  O  O25  1  0.12803859  0.24360442  0.90689363  1
  C  C26  1  0.21693417  0.46739677  0.69871338  1
  H  H27  1  0.13432409  0.32094943  0.50210462  1
  C  C28  1  0.09414371  0.25880685  0.98315871  1
  C  C29  1  0.17302541  0.35773757  0.54964538  1
  C  C30  1  0.01660223  0.41008396  0.63308074  1
  C  C31  1  0.22968992  0.33150854  0.51815673  1
  O  O32  1  0.03649223  0.44834442  0.69989372  1
  H  H33  1  0.24738516  0.01385842  0.50051158  1
  C  C34  1  0.00956809  0.15634236  0.52973791  1
  O  O35  1  0.07190465  0.92164551  0.13845207  1
  C  C36  1  0.22498601  0.92252519  0.29623185  1
  H  H37  1  0.11071746  0.87902441  0.29516665  1
  Cu  Cu38  1  0.00842049  0.85826723  0.09658302  1
  O  O39  1  0.22060544  0.61701231  0.13693983  1
  C  C40  1  0.17207113  0.61562542  0.14060451  1
  H  H41  1  0.17212383  0.76933972  0.13973940  1
  C  C42  1  0.09276387  0.92957520  0.45707532  1
  H  H43  1  0.09256036  0.57946814  0.28327710  1
  C  C44  1  0.18792583  0.93049147  0.39080610  1
  O  O45  1  0.13873212  0.72442327  0.15293237  1
  C  C46  1  0.03372004  0.89421821  0.43131736  1
  H  H47  1  0.02477165  0.60953577  0.36543680  1
  C  C48  1  0.12925772  0.91032122  0.37176225  1
  Cu  Cu49  1  0.06982497  0.69740356  0.07672077  1
  O  O50  1  0.10150268  0.61577937  0.45883630  1
  C  C51  1  0.01023427  0.86937136  0.32817589  1
  C  C52  1  0.10938135  0.92416224  0.06830005  1
  O  O53  1  0.19455449  0.59305962  0.38763851  1
  C  C54  1  0.13401480  0.51393368  0.13740193  1
  C  C55  1  0.09183503  0.51859973  0.21920209  1
  C  C56  1  0.16449080  0.62520004  0.45830098  1
  C  C57  1  0.20319104  0.98794398  0.48587104  1
  O  O58  1  0.00685345  0.65522020  0.00058880  1
  C  C59  1  0.14294704  0.83187126  0.80743384  1
  C  C60  1  0.08434796  0.83357147  0.80675069  1
  H  H61  1  0.21315795  0.88306007  0.90208395  1
  C  C62  1  0.15475345  0.72377277  0.64231828  1
  C  C63  1  0.18019096  0.79681457  0.72301174  1
  C  C64  1  0.16855368  0.88560746  0.89754891  1
  C  C65  1  0.07843860  0.64165676  0.55137671  1
  C  C66  1  0.24361861  0.71609464  0.54219413  1
  H  H67  1  0.08097616  0.98564378  0.62368406  1
  C  C68  1  0.09798545  0.68378315  0.64808512  1
  C  C69  1  0.03235504  0.83796361  0.80828636  1
  H  H70  1  0.07085267  0.69266309  0.72143661  1
  C  C71  1  0.18599934  0.68761830  0.54849447  1
  C  C72  1  0.21220223  0.53069663  0.80348261  1
  C  C73  1  0.11005087  0.97803557  0.55600524  1
  O  O74  1  0.15756626  0.54996297  0.85337361  1
  H  H75  1  0.03551345  0.60940191  0.55781308  1
  C  C76  1  0.13822462  0.90744128  0.98892562  1
  O  O77  1  0.23195561  0.82545848  0.71712057  1
  H  H78  1  0.13604700  0.53109951  0.79148181  1
  H  H79  1  0.00814779  0.91221507  0.59633613  1
  C  C80  1  0.36645461  0.43265162  0.22185896  1
  H  H81  1  0.48501092  0.24956907  0.43014445  1
  C  C82  1  0.30977306  0.29731817  0.11326767  1
  H  H83  1  0.41835394  0.28706415  0.22396098  1
  C  C84  1  0.31179048  0.37341107  0.20089632  1
  C  C85  1  0.41781887  0.37508254  0.21603510  1
  H  H86  1  0.34623490  0.28895628  0.06421665  1
  O  O87  1  0.35473038  0.05321413  0.34634132  1
  C  C88  1  0.26490584  0.39775714  0.26799679  1
  C  C89  1  0.25963629  0.24021237  0.10256063  1
  C  C90  1  0.39828610  0.10080443  0.38391651  1
  C  C91  1  0.25163262  0.16074543  0.01332247  1
  O  O92  1  0.44662893  0.06719132  0.36784766  1
  C  C93  1  0.46935387  0.43154382  0.22320145  1
  H  H94  1  0.26720274  0.45398556  0.33549776  1
  C  C95  1  0.39570078  0.20898448  0.43704409  1
  H  H96  1  0.30689240  0.18156051  0.46009116  1
  C  C97  1  0.44208457  0.27211389  0.45635972  1
  C  C98  1  0.34174613  0.23634831  0.47616797  1
  O  O99  1  0.29061547  0.13950022  0.94362920  1
  C  C100  1  0.43352446  0.36938217  0.51417606  1
  Cu  Cu101  1  0.26710619  0.11225335  0.80366724  1
  C  C102  1  0.33391823  0.33552801  0.52735265  1
  C  C103  1  0.37995333  0.40103464  0.54742051  1
  H  H104  1  0.30557629  0.47214727  0.70794487  1
  C  C105  1  0.48067992  0.43696317  0.54976614  1
  C  C106  1  0.27091291  0.43865176  0.66362849  1
  C  C107  1  0.27599886  0.37193461  0.57111177  1
  H  H108  1  0.37407904  0.48594249  0.57601747  1
  Cu  Cu109  1  0.45642930  0.92610387  0.33237667  1
  C  C110  1  0.36891329  0.54772332  0.23579378  1
  Cu  Cu111  1  0.35546242  0.90111064  0.31493600  1
  C  C112  1  0.41882836  0.60342542  0.24797387  1
  O  O113  1  0.45810876  0.77384400  0.30235524  1
  H  H114  1  0.33043840  0.59629597  0.25017695  1
  C  C115  1  0.41390957  0.72012038  0.28047526  1
  O  O116  1  0.36673681  0.76469983  0.29135264  1
  H  H117  1  0.27059276  0.69254058  0.47020581  1
  C  C118  1  0.47122331  0.54839249  0.23740456  1
  O  O119  1  0.25467962  0.91769477  0.22141501  1
  O  O120  1  0.49095558  0.95319615  0.18739784  1
  O  O121  1  0.37388714  0.82275565  0.59326850  1
  C  C122  1  0.32596988  0.80530553  0.60600581  1
  C  C123  1  0.26843741  0.77872022  0.61856918  1
  O  O124  1  0.46843164  0.51796029  0.60593811  1
  O  O125  1  0.25060286  0.57034579  0.85218596  1
  H  H126  1  0.66766918  0.08314598  0.28747846  1
  C  C127  1  0.55700805  0.18451998  0.17294510  1
  H  H128  1  0.59324081  0.23766885  0.15523166  1
  C  C129  1  0.67323657  0.09125790  0.19955677  1
  C  C130  1  0.52152909  0.36659483  0.21304020  1
  C  C131  1  0.71367789  0.05182630  0.45139135  1
  O  O132  1  0.56518305  0.40597775  0.22408879  1
  C  C133  1  0.56744314  0.07427290  0.15502512  1
  C  C134  1  0.63007060  0.07268470  0.12295939  1
  O  O135  1  0.51614906  0.24119667  0.20533313  1
  C  C136  1  0.73418434  0.09570116  0.03984788  1
  C  C137  1  0.72711874  0.09914651  0.15329445  1
  C  C138  1  0.72255302  0.25848826  0.46555578  1
  C  C139  1  0.69612783  0.15724983  0.47981593  1
  O  O140  1  0.70754514  0.44687207  0.48752263  1
  C  C141  1  0.63554980  0.07489033  0.00723575  1
  H  H142  1  0.65634281  0.15341876  0.52387005  1
  O  O143  1  0.65001057  0.34597253  0.57936431  1
  Cu  Cu144  1  0.59502816  0.44805016  0.62668995  1
  O  O145  1  0.53190256  0.40851806  0.53401434  1
  C  C146  1  0.51571678  0.24303541  0.82406797  1
  H  H147  1  0.59705955  0.07298545  0.95650154  1
  C  C148  1  0.70196230  0.08510155  0.84513525  1
  O  O149  1  0.66636558  0.07684474  0.77874996  1
  C  C150  1  0.68929296  0.09014334  0.96771771  1
  O  O151  1  0.52576124  0.32730521  0.83504249  1
  C  C152  1  0.69139139  0.35887448  0.51511579  1
  H  H153  1  0.56160778  0.89424860  0.14543036  1
  H  H154  1  0.51117784  0.59488724  0.24822997  1
  H  H155  1  0.68407938  0.88360169  0.01722220  1
  C  C156  1  0.67666167  0.95706568  0.45687826  1
  O  O157  1  0.65085328  0.87537849  0.46018239  1
  C  C158  1  0.53887793  0.97624356  0.16502767  1
  C  C159  1  0.66485376  0.66305363  0.84035377  1
  C  C160  1  0.62430804  0.61147281  0.76490739  1
  C  C161  1  0.71577451  0.61274893  0.86357042  1
  O  O162  1  0.58156341  0.66295783  0.73300742  1
  O  O163  1  0.63616462  0.52007363  0.72074015  1
  C  C164  1  0.69433638  0.80927623  0.96980777  1
  C  C165  1  0.74118686  0.81831230  0.67455841  1
  H  H166  1  0.72518765  0.53397340  0.81825715  1
  Cu  Cu167  1  0.52272742  0.60006690  0.67149424  1
  H  H168  1  0.61532191  0.80429760  0.88046171  1
  H  H169  1  0.70270799  0.86796925  0.66245822  1
  C  C170  1  0.65481831  0.76396922  0.89433543  1
  H  H171  1  0.74906068  0.79824812  0.76291169  1
  C  C172  1  0.74270172  0.75549499  0.99058122  1
  O  O173  1  0.94931313  0.04956855  0.08074331  1
  H  H174  1  0.79187606  0.19215690  0.39028717  1
  H  H175  1  0.96360643  0.27775047  0.26595005  1
  H  H176  1  0.76645124  0.09722943  0.20677962  1
  C  C177  1  0.95798423  0.35992450  0.29606293  1
  C  C178  1  0.81662334  0.05664250  0.47576884  1
  C  C179  1  0.90493846  0.39174106  0.34066442  1
  C  C180  1  0.85859558  0.31188002  0.32731685  1
  O  O181  1  0.86213010  0.23212530  0.27780316  1
  C  C182  1  0.77092088  0.01157233  0.41585914  1
  C  C183  1  0.99768318  0.44952621  0.28966096  1
  C  C184  1  0.89729493  0.48866992  0.40209935  1
  O  O185  1  0.80281116  0.34987445  0.38075435  1
  C  C186  1  0.77211991  0.26989463  0.41246201  1
  H  H187  1  0.77394599  0.10028476  0.00064053  1
  H  H188  1  0.85951651  0.02467621  0.45582031  1
  O  O189  1  0.84950649  0.25968922  0.87750090  1
  Cu  Cu190  1  0.94302305  0.17420007  0.99462143  1
  H  H191  1  0.78081012  0.43396022  0.90882965  1
  C  C192  1  0.88717181  0.33175105  0.90366390  1
  O  O193  1  0.75502802  0.08931881  0.82189916  1
  Cu  Cu194  1  0.87789809  0.12479911  0.82762926  1
  Cu  Cu195  1  0.79567743  0.10513006  0.69456564  1
  H  H196  1  0.96166939  0.47961417  0.96136682  1
  C  C197  1  0.87306372  0.44399526  0.93114547  1
  O  O198  1  0.93706421  0.30083002  0.91476923  1
  O  O199  1  0.82554977  0.11684108  0.55251015  1
  O  O200  1  0.99347493  0.04815378  0.76824992  1
  H  H201  1  0.97703991  0.14452080  0.58750080  1
  C  C202  1  0.81957132  0.48316281  0.92937935  1
  H  H203  1  0.77215430  0.79525552  0.04765468  1
  C  C204  1  0.90551484  0.99741370  0.11316195  1
  C  C205  1  0.77965333  0.92981541  0.33672311  1
  H  H206  1  0.88184634  0.78235046  0.37134823  1
  O  O207  1  0.79852313  0.86137208  0.28040503  1
  C  C208  1  0.91980857  0.83389980  0.38912123  1
  C  C209  1  0.96233533  0.83953243  0.31050729  1
  C  C210  1  0.99306032  0.54639557  0.36008851  1
  O  O211  1  0.94846374  0.79006212  0.04802791  1
  C  C212  1  0.85678538  0.95951221  0.05449876  1
  H  H213  1  0.93034398  0.64024630  0.46500819  1
  C  C214  1  0.94166767  0.56339529  0.41487727  1
  H  H215  1  0.85658553  0.50451768  0.44052207  1
  C  C216  1  0.95795130  0.69039100  0.01431470  1
  H  H217  1  0.91096137  0.97572884  0.20018719  1
  O  O218  1  0.81593929  0.93078631  0.00832883  1
  C  C219  1  0.93773062  0.85422315  0.49815170  1
  C  C220  1  0.97589868  0.86175519  0.81043084  1
  C  C221  1  0.85538711  0.66485489  0.97900741  1
  C  C222  1  0.95710737  0.96725131  0.78308136  1
  H  H223  1  0.94659182  0.79347801  0.82645042  1
  C  C224  1  0.91905799  0.51400800  0.95763918  1
  C  C225  1  0.81041296  0.59659326  0.94948296  1
  H  H226  1  0.90891364  0.84317570  0.56865672  1
  C  C227  1  0.91042361  0.62416028  0.98398330  1
  C  C228  1  0.80832633  0.67653493  0.60971718  1
  C  C229  1  0.76496558  0.76002114  0.58911052  1
  O  O230  1  0.90592107  0.99320452  0.77459047  1
  O  O231  1  0.84214661  0.60935607  0.62139968  1
  C  C232  1  0.75554174  0.65410133  0.93466085  1
  H  H233  1  0.75200374  0.77701295  0.50549880  1
  C  C234  1  0.99247048  0.89364062  0.51755012  1
  H  H235  1  0.85192627  0.75378993  0.99511895  1
