# generated using pymatgen
data_ZnH14C23NO4
_symmetry_space_group_name_H-M   'P 1'
_cell_length_a   30.83323848
_cell_length_b   11.57764269
_cell_length_c   17.05494743
_cell_angle_alpha   90.00000000
_cell_angle_beta   90.00000000
_cell_angle_gamma   90.00000000
_symmetry_Int_Tables_number   1
_chemical_formula_structural   ZnH14C23NO4
_chemical_formula_sum   'Zn12 H168 C276 N12 O48'
_cell_volume   6088.21063483
_cell_formula_units_Z   12
loop_
 _symmetry_equiv_pos_site_id
 _symmetry_equiv_pos_as_xyz
  1  'x, y, z'
loop_
 _atom_site_type_symbol
 _atom_site_label
 _atom_site_symmetry_multiplicity
 _atom_site_fract_x
 _atom_site_fract_y
 _atom_site_fract_z
 _atom_site_occupancy
  C  C0  1  0.17579379  0.14175227  0.13708020  1
  C  C1  1  0.20679891  0.22905797  0.12920722  1
  C  C2  1  0.20753800  0.31563525  0.18933428  1
  C  C3  1  0.14953744  0.14013468  0.20129633  1
  H  H4  1  0.17366769  0.06923641  0.09623525  1
  H  H5  1  0.22563633  0.24268174  0.07536053  1
  H  H6  1  0.10955532  0.37404251  0.14149632  1
  H  H7  1  0.05797194  0.26760781  0.22193679  1
  C  C8  1  0.11830275  0.04174375  0.21004111  1
  C  C9  1  0.02983724  0.32395705  0.22589655  1
  C  C10  1  0.03175342  0.44471930  0.21936688  1
  H  H11  1  0.21151200  0.39726907  0.02141057  1
  C  C12  1  0.24190516  0.40716916  0.17910568  1
  H  H13  1  0.24128167  0.00629462  0.18262183  1
  C  C14  1  0.10436213  0.46613467  0.14628947  1
  C  C15  1  0.27035568  0.14019473  0.24880196  1
  C  C16  1  0.47209632  0.04648657  0.10199893  1
  C  C17  1  0.45310603  0.42694737  0.10854399  1
  C  C18  1  0.49688678  0.40498227  0.08065270  1
  H  H19  1  0.29529381  0.29903598  0.13225613  1
  C  C20  1  0.41234484  0.18383755  0.11871884  1
  C  C21  1  0.37972594  0.48993393  0.07890021  1
  H  H22  1  0.30342803  0.05955699  0.04828710  1
  C  C23  1  0.44101880  0.40112850  0.18471457  1
  C  C24  1  0.35192700  0.18578184  0.01259180  1
  C  C25  1  0.27317171  0.04381072  0.20002350  1
  H  H26  1  0.46376156  0.35281956  0.22228744  1
  C  C27  1  0.39399079  0.13118497  0.05245148  1
  C  C28  1  0.39820046  0.41589798  0.20877820  1
  C  C29  1  0.42250559  0.46849217  0.05328597  1
  C  C30  1  0.40827181  0.02329467  0.02371181  1
  H  H31  1  0.39680188  0.25676878  0.14856832  1
  C  C32  1  0.35015265  0.04658826  0.21545194  1
  C  C33  1  0.28659580  0.38240783  0.15573623  1
  C  C34  1  0.45188011  0.13383677  0.14306651  1
  H  H35  1  0.47080969  0.17506300  0.19248716  1
  C  C36  1  0.36667750  0.45326720  0.15493275  1
  C  C37  1  0.31785244  0.46950648  0.17137282  1
  H  H38  1  0.38238766  0.00856319  0.20354674  1
  C  C39  1  0.30991030  0.14211936  0.01718783  1
  H  H40  1  0.12800252  0.20479683  0.31600150  1
  H  H41  1  0.18556084  0.36955059  0.30571458  1
  O  O42  1  0.23161276  0.05037280  0.42646906  1
  H  H43  1  0.17709060  0.15871551  0.46398661  1
  O  O44  1  0.09271183  0.04115166  0.27016933  1
  H  H45  1  0.13514000  0.34037903  0.42995729  1
  C  C46  1  0.16244987  0.34545355  0.47323579  1
  O  O47  1  0.16327882  0.01581223  0.39480476  1
  C  C48  1  0.18751662  0.24391383  0.48802999  1
  C  C49  1  0.18030010  0.30787709  0.25618726  1
  H  H50  1  0.23788731  0.17840369  0.26361617  1
  C  C51  1  0.15100413  0.22025857  0.26368119  1
  H  H52  1  0.10408287  0.49856642  0.40674920  1
  C  C53  1  0.18042339  0.45163451  0.49762102  1
  C  C54  1  0.30802788  0.18668295  0.28320966  1
  H  H55  1  0.48483488  0.07866948  0.32721526  1
  C  C56  1  0.34804477  0.13575693  0.26946865  1
  C  C57  1  0.45508747  0.05111028  0.35426540  1
  C  C58  1  0.39672321  0.11446297  0.41967236  1
  H  H59  1  0.29811624  0.27114653  0.49574333  1
  H  H60  1  0.37679897  0.16533322  0.30302870  1
  H  H61  1  0.38948365  0.38369464  0.27100438  1
  N  N62  1  0.43162481  0.14302217  0.37714379  1
  H  H63  1  0.38393648  0.19227864  0.44181655  1
  C  C64  1  0.38537512  0.00144683  0.44129102  1
  H  H65  1  0.34755564  0.39085548  0.39227189  1
  O  O66  1  0.35619435  0.33041696  0.35777110  1
  C  C67  1  0.31051395  0.29512214  0.33113831  1
  O  O68  1  0.28183281  0.35281899  0.35133145  1
  C  C69  1  0.23664689  0.33455415  0.56198738  1
  H  H70  1  0.16406625  0.21895380  0.69046804  1
  H  H71  1  0.09934075  0.08308018  0.70936033  1
  C  C72  1  0.21619828  0.44159591  0.54980574  1
  H  H73  1  0.20628479  0.31862860  0.69008576  1
  C  C74  1  0.13355995  0.05791494  0.72259281  1
  C  C75  1  0.16871966  0.13076647  0.71449110  1
  N  N76  1  0.22358018  0.23681712  0.52955546  1
  C  C77  1  0.23751693  0.29876959  0.71634797  1
  O  O78  1  0.03982091  0.14887903  0.73534171  1
  C  C79  1  0.21105817  0.09954352  0.74668509  1
  C  C80  1  0.24647304  0.18820095  0.74813490  1
  H  H81  1  0.48116137  0.18263072  0.50794653  1
  Zn  Zn82  1  0.25843311  0.08126824  0.54101109  1
  C  C83  1  0.36838060  0.31352154  0.53116602  1
  H  H84  1  0.41596450  0.10903106  0.65007434  1
  H  H85  1  0.26451424  0.31235200  0.59476270  1
  C  C86  1  0.27129966  0.38555164  0.71965048  1
  C  C87  1  0.39258961  0.15316376  0.60940208  1
  C  C88  1  0.44786891  0.31694873  0.58351381  1
  C  C89  1  0.35074014  0.11011156  0.60176758  1
  C  C90  1  0.48385868  0.25731877  0.54941023  1
  C  C91  1  0.32773679  0.25845507  0.53046254  1
  H  H92  1  0.32537975  0.48853322  0.63476681  1
  N  N93  1  0.31852446  0.15698434  0.56377983  1
  C  C94  1  0.40273344  0.26328193  0.57291533  1
  H  H95  1  0.43306711  0.46270963  0.66064492  1
  C  C96  1  0.31227302  0.35124836  0.74956938  1
  C  C97  1  0.45813416  0.41780333  0.62774475  1
  H  H98  1  0.37422428  0.39489533  0.50010148  1
  Zn  Zn99  1  0.06207706  0.37531488  0.90164902  1
  O  O100  1  0.13358191  0.38221336  0.93606583  1
  H  H101  1  0.13451363  0.18621103  0.88772597  1
  C  C102  1  0.16053866  0.13210530  0.91718929  1
  C  C103  1  0.19910552  0.18828748  0.92619944  1
  H  H104  1  0.20368373  0.27320121  0.90175835  1
  C  C105  1  0.23478073  0.12999108  0.96197235  1
  O  O106  1  0.03296851  0.21847968  0.95622586  1
  C  C107  1  0.14266628  0.47746756  0.91372143  1
  C  C108  1  0.21387898  0.48783362  0.99883363  1
  C  C109  1  0.22446791  0.01600144  0.99261899  1
  C  C110  1  0.15449685  0.01550255  0.93999448  1
  O  O111  1  0.08365689  0.02957102  0.88962220  1
  Zn  Zn112  1  0.03204249  0.00019387  0.81241803  1
  O  O113  1  0.05249658  0.32242145  0.77934922  1
  C  C114  1  0.02705910  0.24789011  0.75437492  1
  H  H115  1  0.35702865  0.02606812  0.82643001  1
  C  C116  1  0.27684520  0.19455431  0.96989844  1
  C  C117  1  0.49914159  0.14215744  0.85442904  1
  C  C118  1  0.28835728  0.15584498  0.77719038  1
  C  C119  1  0.44282880  0.27809241  0.80667833  1
  C  C120  1  0.36804924  0.21536634  0.79956550  1
  H  H121  1  0.29395998  0.07144864  0.80617493  1
  C  C122  1  0.36285626  0.29025363  0.97450257  1
  C  C123  1  0.32736990  0.35147032  0.94071257  1
  C  C124  1  0.39917524  0.30368268  0.79030305  1
  C  C125  1  0.42374140  0.07603473  0.83871926  1
  H  H126  1  0.40141989  0.44084822  0.90147327  1
  C  C127  1  0.32153025  0.23712446  0.77497525  1
  H  H128  1  0.25958676  0.34963153  0.89947603  1
  C  C129  1  0.38111707  0.09890253  0.82030772  1
  C  C130  1  0.28475416  0.30654620  0.93578690  1
  H  H131  1  0.39500023  0.32561784  0.97607894  1
  C  C132  1  0.45453129  0.17009840  0.83606689  1
  C  C133  1  0.33213657  0.46986501  0.90401671  1
  H  H134  1  0.39056468  0.39292555  0.77893516  1
  H  H135  1  0.46923842  0.34314029  0.79761660  1
  H  H136  1  0.33733822  0.42162114  0.75763198  1
  H  H137  1  0.10919859  0.80367007  0.17683570  1
  N  N138  1  0.13742950  0.65613832  0.12982247  1
  C  C139  1  0.10385164  0.70467714  0.16529534  1
  C  C140  1  0.06942215  0.63654995  0.18955428  1
  H  H141  1  0.04311511  0.68008138  0.21804380  1
  C  C142  1  0.23121326  0.51685759  0.20781690  1
  H  H143  1  0.00302087  0.73543925  0.07274350  1
  H  H144  1  0.19810197  0.54391689  0.22702832  1
  H  H145  1  0.18579216  0.71513864  0.19116287  1
  C  C146  1  0.20711728  0.75733319  0.23611060  1
  C  C147  1  0.13521412  0.54300663  0.11784242  1
  H  H148  1  0.16429165  0.51669609  0.08746045  1
  C  C149  1  0.07017770  0.51413338  0.18946355  1
  C  C150  1  0.24871587  0.54859339  0.02654484  1
  O  O151  1  0.12021421  0.96027562  0.16422250  1
  H  H152  1  0.01089453  0.96139453  0.23094784  1
  H  H153  1  0.24978864  0.83459119  0.11994184  1
  H  H154  1  0.17767178  0.87570611  0.02001053  1
  C  C155  1  0.41439666  0.76312087  0.01502595  1
  H  H156  1  0.38944666  0.90097378  0.12968372  1
  H  H157  1  0.25114074  0.97300181  0.02157344  1
  H  H158  1  0.27006867  0.51959073  0.07312649  1
  C  C159  1  0.44571752  0.71511259  0.06651490  1
  C  C160  1  0.26298198  0.60357150  0.22036933  1
  C  C161  1  0.36746950  0.77829918  0.04468718  1
  C  C162  1  0.48919834  0.69936302  0.03841487  1
  H  H163  1  0.35349218  0.53111391  0.03975331  1
  C  C164  1  0.28842746  0.74464436  0.03420943  1
  C  C165  1  0.44958652  0.98575856  0.04434309  1
  H  H166  1  0.46879384  0.91628876  0.01609226  1
  H  H167  1  0.33510183  0.63965602  0.21565587  1
  C  C168  1  0.31834689  0.88749547  0.12845094  1
  H  H169  1  0.43773166  0.68790126  0.12458272  1
  C  C170  1  0.31244217  0.99127494  0.18148634  1
  C  C171  1  0.36136001  0.86021191  0.10448896  1
  C  C172  1  0.28199894  0.82801863  0.09652237  1
  C  C173  1  0.30770029  0.57993799  0.20436732  1
  C  C174  1  0.25103633  0.66922039  0.00174577  1
  C  C175  1  0.33044128  0.72732345  0.00706668  1
  N  N176  1  0.12916534  0.78362652  0.42030079  1
  C  C177  1  0.22171248  0.90233914  0.33632567  1
  Zn  Zn178  1  0.10554802  0.93116243  0.36680588  1
  C  C179  1  0.10968348  0.68559438  0.39884020  1
  H  H180  1  0.08262496  0.69983139  0.36077181  1
  O  O181  1  0.05187211  0.83931199  0.31742041  1
  C  C182  1  0.12323559  0.57796063  0.42586769  1
  C  C183  1  0.16202258  0.77839038  0.46926756  1
  C  C184  1  0.19353205  0.85258990  0.28085050  1
  H  H185  1  0.17754514  0.85939276  0.48483585  1
  C  C186  1  0.01480260  0.79687517  0.33388586  1
  C  C187  1  0.15922314  0.56856455  0.47881069  1
  O  O188  1  0.01185963  0.70659643  0.36736958  1
  H  H189  1  0.16098875  0.88309723  0.26944564  1
  C  C190  1  0.20301157  0.99046012  0.39210000  1
  C  C191  1  0.24974665  0.71808227  0.25422951  1
  H  H192  1  0.43268321  0.50753592  0.44834056  1
  N  N193  1  0.37085433  0.54543739  0.44085849  1
  C  C194  1  0.44278657  0.93485325  0.36114114  1
  C  C195  1  0.33913626  0.62209563  0.43419350  1
  H  H196  1  0.32380253  0.80780062  0.42585737  1
  C  C197  1  0.42559500  0.69440970  0.43311902  1
  H  H198  1  0.45928460  0.71603064  0.43140763  1
  C  C199  1  0.27882548  0.77564777  0.30741940  1
  H  H200  1  0.28784227  0.91149488  0.39152200  1
  H  H201  1  0.35907477  0.98891259  0.48284566  1
  C  C202  1  0.40562704  0.90335266  0.40716544  1
  C  C203  1  0.34853753  0.73794196  0.42232044  1
  C  C204  1  0.39190175  0.77896487  0.41826635  1
  H  H205  1  0.31357866  0.74402586  0.31199771  1
  C  C206  1  0.26500897  0.86757254  0.35290207  1
  H  H207  1  0.45897592  0.87062398  0.32468294  1
  H  H208  1  0.30653102  0.58510101  0.43858724  1
  C  C209  1  0.41228344  0.58091862  0.44073860  1
  H  H210  1  0.20172540  0.74925480  0.67951021  1
  C  C211  1  0.22942595  0.69157564  0.66446831  1
  C  C212  1  0.22694279  0.58321097  0.70001928  1
  O  O213  1  0.23964765  0.90924600  0.58447233  1
  O  O214  1  0.06970782  0.88690943  0.73386010  1
  H  H215  1  0.19762979  0.55212460  0.73100547  1
  H  H216  1  0.22887359  0.52016168  0.57568924  1
  H  H217  1  0.20714808  0.67992175  0.53994791  1
  C  C218  1  0.17790586  0.67510981  0.50082822  1
  C  C219  1  0.27122479  0.84615193  0.58125288  1
  C  C220  1  0.29752201  0.54887288  0.64161145  1
  O  O221  1  0.39166747  0.79497014  0.73145401  1
  O  O222  1  0.30647390  0.87326983  0.55262934  1
  C  C223  1  0.26457916  0.50778867  0.69298683  1
  C  C224  1  0.29998194  0.65356018  0.60504436  1
  C  C225  1  0.26469350  0.72968752  0.61685759  1
  Zn  Zn226  1  0.34717688  0.96154047  0.66219730  1
  H  H227  1  0.32933890  0.67985944  0.57147356  1
  C  C228  1  0.19071413  0.64920906  0.91903025  1
  H  H229  1  0.16701449  0.67409570  0.87163013  1
  Zn  Zn230  1  0.09367159  0.69767802  0.90969406  1
  C  C231  1  0.22488241  0.72372573  0.94494038  1
  C  C232  1  0.01656480  0.57937062  0.97152448  1
  C  C233  1  0.11065288  0.96718323  0.92324263  1
  O  O234  1  0.10220949  0.87299987  0.95717721  1
  H  H235  1  0.18965398  0.81901014  0.80350204  1
  C  C236  1  0.18397298  0.53711852  0.94333289  1
  O  O237  1  0.11480479  0.53601326  0.87715647  1
  H  H238  1  0.22856034  0.81365840  0.92680733  1
  C  C239  1  0.18484577  0.95495856  0.98579077  1
  O  O240  1  0.04838225  0.63901881  0.99143457  1
  C  C241  1  0.22002351  0.98479281  0.77579359  1
  O  O242  1  0.01655849  0.50197876  0.92112999  1
  C  C243  1  0.18374020  0.90766723  0.77704639  1
  O  O244  1  0.11283943  0.76403066  0.78820336  1
  C  C245  1  0.10621937  0.85951691  0.76010479  1
  C  C246  1  0.14262485  0.94244500  0.75058929  1
  H  H247  1  0.25167872  0.95604629  0.79879320  1
  C  C248  1  0.49633242  0.73326011  0.95923319  1
  H  H249  1  0.43554010  0.50643383  0.99972838  1
  C  C250  1  0.37607409  0.50607693  0.88997424  1
  H  H251  1  0.42032626  0.62280888  0.82193788  1
  H  H252  1  0.39628602  0.81003755  0.89942271  1
  H  H253  1  0.33827250  0.67518489  0.95658039  1
  H  H254  1  0.47235288  0.79979230  0.84224478  1
  C  C255  1  0.30640521  0.64631657  0.83841663  1
  H  H256  1  0.26239031  0.51226575  0.88813828  1
  C  C257  1  0.35016315  0.66959361  0.81780931  1
  C  C258  1  0.38646819  0.60069306  0.84262366  1
  C  C259  1  0.46676748  0.77950225  0.90502367  1
  H  H260  1  0.43629423  0.98578387  0.85527056  1
  H  H261  1  0.38928210  0.97235023  0.98084993  1
  C  C262  1  0.42353471  0.78460921  0.93348468  1
  H  H263  1  0.27873613  0.69899708  0.81934308  1
  C  C264  1  0.29682106  0.53885455  0.87611320  1
  O  O265  1  0.32777576  0.84878179  0.75422639  1
  C  C266  1  0.35744824  0.77522186  0.76677629  1
  O  O267  1  0.52267009  0.36952175  0.12920794  1
  Zn  Zn268  1  0.57248517  0.24650061  0.13034489  1
  O  O269  1  0.63215118  0.21176607  0.07111102  1
  O  O270  1  0.53425111  0.09208970  0.16855816  1
  H  H271  1  0.70566450  0.18107028  0.04707755  1
  H  H272  1  0.67245375  0.34233767  0.18713211  1
  C  C273  1  0.72421042  0.21972050  0.17747084  1
  C  C274  1  0.72094102  0.42851048  0.03273991  1
  C  C275  1  0.68488557  0.25740090  0.20767285  1
  C  C276  1  0.51957499  0.02436858  0.11884239  1
  O  O277  1  0.50504046  0.42075119  0.00751756  1
  C  C278  1  0.73186138  0.47874911  0.10699872  1
  H  H279  1  0.74132863  0.27143814  0.13467951  1
  H  H280  1  0.66238985  0.01469466  0.02370436  1
  C  C281  1  0.74303489  0.12102289  0.21372618  1
  C  C282  1  0.67847896  0.42943792  0.00338798  1
  O  O283  1  0.59551755  0.29885527  0.23772655  1
  H  H284  1  0.74421187  0.36483517  0.00900956  1
  C  C285  1  0.94123962  0.00858890  0.22061540  1
  H  H286  1  0.99580214  0.32127678  0.08109529  1
  C  C287  1  0.78657993  0.08147960  0.18032919  1
  H  H288  1  0.80334206  0.47764126  0.02463364  1
  C  C289  1  0.82929439  0.03639078  0.06369491  1
  H  H290  1  0.92700690  0.40633567  0.13894340  1
  C  C291  1  0.86488096  0.00533908  0.10939228  1
  C  C292  1  0.84861009  0.32186816  0.17724500  1
  C  C293  1  0.77537174  0.44309870  0.13857910  1
  H  H294  1  0.76258514  0.09440867  0.05944014  1
  C  C295  1  0.96381850  0.30304099  0.05501891  1
  C  C296  1  0.80894890  0.43349390  0.08102213  1
  C  C297  1  0.92550813  0.35265955  0.08573359  1
  H  H298  1  0.87480334  0.25980233  0.18490004  1
  C  C299  1  0.88441421  0.33604473  0.04999746  1
  C  C300  1  0.79026586  0.07868611  0.09778050  1
  C  C301  1  0.77759302  0.40028073  0.21774245  1
  H  H302  1  0.94530636  0.07755527  0.17920181  1
  C  C303  1  0.84640058  0.37735876  0.10277867  1
  C  C304  1  0.86180574  0.00516806  0.19256909  1
  C  C305  1  0.81468807  0.33272379  0.23486381  1
  C  C306  1  0.82237670  0.04533142  0.22731961  1
  H  H307  1  0.98727699  0.16731001  0.23984947  1
  C  C308  1  0.99138997  0.26463441  0.24403506  1
  C  C309  1  0.61597058  0.22779560  0.28121305  1
  C  C310  1  0.66253098  0.39397302  0.40342498  1
  H  H311  1  0.63511182  0.33226722  0.41165638  1
  O  O312  1  0.59977033  0.18733825  0.33869007  1
  C  C313  1  0.68084401  0.09111535  0.29552909  1
  C  C314  1  0.72233635  0.05531851  0.27444457  1
  C  C315  1  0.66247825  0.18973708  0.26284220  1
  C  C316  1  0.70305906  0.35963056  0.43699398  1
  H  H317  1  0.66102684  0.03194296  0.33337891  1
  H  H318  1  0.65800708  0.16284926  0.41689771  1
  C  C319  1  0.65771193  0.49450363  0.36043191  1
  C  C320  1  0.73720322  0.43807288  0.41990011  1
  C  C321  1  0.68034746  0.15745161  0.46483022  1
  C  C322  1  0.70593624  0.25361981  0.48863815  1
  C  C323  1  0.83889806  0.00652855  0.48569643  1
  H  H324  1  0.87915834  0.45788705  0.42097675  1
  H  H325  1  0.89128881  0.26670235  0.30398899  1
  C  C326  1  0.78316394  0.22955566  0.35921078  1
  H  H327  1  0.75736057  0.11555975  0.45306836  1
  H  H328  1  0.76959002  0.42597293  0.45136438  1
  C  C329  1  0.86743469  0.14791196  0.39106793  1
  N  N330  1  0.95498756  0.31983431  0.26547355  1
  H  H331  1  0.75127305  0.40506833  0.26197730  1
  H  H332  1  0.75211957  0.27010419  0.35281855  1
  H  H333  1  0.82174344  0.05474894  0.29073505  1
  C  C334  1  0.86249009  0.23389810  0.33389721  1
  C  C335  1  0.82912634  0.10044311  0.42721504  1
  C  C336  1  0.81900527  0.26859953  0.31146695  1
  H  H337  1  0.92430699  0.46143450  0.29121759  1
  C  C338  1  0.95740882  0.43388040  0.26745705  1
  C  C339  1  0.78638928  0.14906958  0.41913751  1
  H  H340  1  0.89999853  0.11609086  0.40437519  1
  N  N341  1  0.71045405  0.03207791  0.56708453  1
  C  C342  1  0.68311704  0.05414772  0.50960581  1
  H  H343  1  0.73082537  0.40596376  0.55535655  1
  C  C344  1  0.73687157  0.11913660  0.58669253  1
  C  C345  1  0.73403406  0.23055288  0.55452071  1
  N  N346  1  0.53490619  0.40068785  0.60073076  1
  C  C347  1  0.73344230  0.49164224  0.57874127  1
  C  C348  1  0.50261035  0.45322759  0.63585224  1
  C  C349  1  0.52575191  0.30079224  0.56188498  1
  H  H350  1  0.55785748  0.26774845  0.54039783  1
  C  C351  1  0.77834790  0.42223385  0.70019154  1
  H  H352  1  0.96757186  0.09116926  0.70987963  1
  C  C353  1  0.95245272  0.17486421  0.72823999  1
  H  H354  1  0.76233808  0.09297154  0.63016665  1
  H  H355  1  0.84551267  0.45297719  0.66474738  1
  C  C356  1  0.97956746  0.26886737  0.74443054  1
  C  C357  1  0.82357590  0.39698024  0.69870238  1
  H  H358  1  0.75957128  0.29393678  0.57236861  1
  H  H359  1  0.88695305  0.10859148  0.72259278  1
  C  C360  1  0.90736704  0.18418396  0.73416635  1
  C  C361  1  0.65548096  0.17906847  0.86426587  1
  C  C362  1  0.69250738  0.18699385  0.81544113  1
  H  H363  1  0.62044090  0.17652689  0.84510422  1
  C  C364  1  0.66099657  0.18602351  0.94495841  1
  O  O365  1  0.52751523  0.22017479  0.84459034  1
  Zn  Zn366  1  0.54688793  0.34894401  0.92538058  1
  H  H367  1  0.66979235  0.37991396  0.94895872  1
  C  C368  1  0.73208972  0.21821561  0.85315400  1
  C  C369  1  0.74041499  0.22481947  0.93913876  1
  O  O370  1  0.51003445  0.04562654  0.88631207  1
  H  H371  1  0.69194431  0.18600359  0.75274544  1
  H  H372  1  0.71890282  0.39454805  0.76608095  1
  O  O373  1  0.59965606  0.47190175  0.93509281  1
  C  C374  1  0.70322505  0.19496180  0.98143054  1
  O  O375  1  0.50544760  0.49090563  0.82699016  1
  O  O376  1  0.58390258  0.18818679  0.97740876  1
  C  C377  1  0.62412901  0.19254358  0.99896546  1
  C  C378  1  0.75139805  0.36899177  0.75665603  1
  H  H379  1  0.90460731  0.03267590  0.97634569  1
  C  C380  1  0.87482947  0.00742485  0.85956651  1
  C  C381  1  0.87453087  0.02141568  0.94031767  1
  H  H382  1  0.93570424  0.48302224  0.93874041  1
  C  C383  1  0.83338159  0.01439297  0.97682037  1
  C  C384  1  0.87861234  0.25583603  0.98656306  1
  H  H385  1  0.84477638  0.23757611  0.96371591  1
  H  H386  1  0.91575683  0.18371466  0.89035355  1
  C  C387  1  0.91643680  0.21878133  0.95037574  1
  C  C388  1  0.95785978  0.23753892  0.98507054  1
  H  H389  1  0.88522671  0.46134221  0.86108714  1
  O  O390  1  0.98875111  0.10851038  0.89060267  1
  H  H391  1  0.77259628  0.23076766  0.96644444  1
  C  C392  1  0.76802930  0.27463936  0.80333838  1
  H  H393  1  0.82939354  0.17783701  0.83572472  1
  H  H394  1  0.80279243  0.41838973  0.87925497  1
  C  C395  1  0.81261542  0.24842955  0.80153067  1
  C  C396  1  0.99507993  0.18335492  0.94164593  1
  C  C397  1  0.91882079  0.39120494  0.76303469  1
  C  C398  1  0.84130756  0.31604831  0.75272794  1
  H  H399  1  0.98565942  0.45741192  0.76751995  1
  H  H400  1  0.90256838  0.47241073  0.77571710  1
  C  C401  1  0.96373538  0.38254411  0.75903298  1
  C  C402  1  0.89016126  0.29240356  0.75226299  1
  H  H403  1  0.63688770  0.63819872  0.12099641  1
  C  C404  1  0.71466161  0.91237013  0.07634268  1
  H  H405  1  0.70946848  0.60993731  0.19738800  1
  C  C406  1  0.66198689  0.57677709  0.10396281  1
  C  C407  1  0.70099333  0.55857173  0.14284945  1
  H  H408  1  0.51465689  0.66341738  0.07770809  1
  O  O409  1  0.54229443  0.96034087  0.07491716  1
  O  O410  1  0.58391084  0.60873089  0.02089010  1
  C  C411  1  0.73768321  0.80832171  0.07053224  1
  C  C412  1  0.68031822  0.93023140  0.02335396  1
  C  C413  1  0.72565473  0.71552848  0.02028092  1
  H  H414  1  0.72615223  0.97664972  0.12053929  1
  H  H415  1  0.74404085  0.63615383  0.02587390  1
  H  H416  1  0.74606248  0.75324242  0.23485345  1
  C  C417  1  0.65040301  0.51416415  0.03423567  1
  C  C418  1  0.97300894  0.60661360  0.00341648  1
  C  C419  1  0.81373821  0.69605480  0.23939982  1
  C  C420  1  0.77701259  0.77881382  0.12205857  1
  H  H421  1  0.86482445  0.53903436  0.00454716  1
  C  C422  1  0.89382363  0.59427036  0.01355785  1
  C  C423  1  0.81503580  0.76273391  0.07655694  1
  C  C424  1  0.97230109  0.69620644  0.05919528  1
  C  C425  1  0.93344966  0.73556356  0.09453361  1
  H  H426  1  0.89430677  0.96479610  0.08324979  1
  C  C427  1  0.77586477  0.74584897  0.20364925  1
  C  C428  1  0.85120871  0.67796940  0.19348818  1
  C  C429  1  0.89505139  0.68242338  0.07057713  1
  H  H430  1  0.93159557  0.80401820  0.13976438  1
  H  H431  1  0.88214546  0.64813366  0.21707940  1
  C  C432  1  0.85210862  0.70813934  0.11295035  1
  H  H433  1  0.81502670  0.78560696  0.01246719  1
  C  C434  1  0.90005069  0.96844285  0.24116712  1
  C  C435  1  0.99292690  0.50290188  0.24322803  1
  H  H436  1  0.99369480  0.59732198  0.24536775  1
  C  C437  1  0.67897308  0.85413443  0.38952667  1
  N  N438  1  0.69128142  0.55113738  0.33587197  1
  O  O439  1  0.71576003  0.84838389  0.37384569  1
  O  O440  1  0.64228239  0.85904453  0.40381271  1
  H  H441  1  0.62797279  0.53299701  0.33027235  1
  H  H442  1  0.73754832  0.97722568  0.30003764  1
  C  C443  1  0.72958381  0.52744985  0.36445019  1
  H  H444  1  0.69407347  0.57639684  0.48616895  1
  H  H445  1  0.66822855  0.96824776  0.49950614  1
  C  C446  1  0.97651076  0.94753066  0.25375939  1
  H  H447  1  0.92698151  0.74479190  0.36026102  1
  C  C448  1  0.89367482  0.87843999  0.29979316  1
  C  C449  1  0.93102763  0.82110303  0.32568687  1
  H  H450  1  0.86140278  0.84408594  0.31335157  1
  C  C451  1  0.84600764  0.56517029  0.33639042  1
  H  H452  1  0.75493464  0.58388218  0.33818937  1
  C  C453  1  0.80965131  0.68873981  0.46531125  1
  C  C454  1  0.97373385  0.85763014  0.30638735  1
  C  C455  1  0.79942939  0.72259334  0.38985987  1
  H  H456  1  0.85573655  0.51202981  0.28494383  1
  C  C457  1  0.81922923  0.66284331  0.32512738  1
  C  C458  1  0.85799637  0.53553178  0.41260327  1
  H  H459  1  0.77445894  0.78850620  0.37464841  1
  C  C460  1  0.84307576  0.60556202  0.47725466  1
  C  C461  1  0.71834054  0.69570514  0.57640643  1
  C  C462  1  0.71326694  0.58696436  0.54018547  1
  Zn  Zn463  1  0.71705809  0.87261652  0.60896300  1
  C  C464  1  0.73908595  0.71609505  0.64738603  1
  H  H465  1  0.51548527  0.52481247  0.67079124  1
  C  C466  1  0.83596360  0.95329799  0.73582466  1
  H  H467  1  0.77464221  0.63038314  0.74846380  1
  H  H468  1  0.99891896  0.82035712  0.72235627  1
  C  C469  1  0.75231069  0.51587286  0.65456814  1
  H  H470  1  0.93358728  0.65152432  0.72109264  1
  O  O471  1  0.87517527  0.97911377  0.51080686  1
  C  C472  1  0.75668465  0.62499057  0.69166146  1
  Zn  Zn473  1  0.85263085  0.84190969  0.60088886  1
  O  O474  1  0.80380467  0.94067289  0.69573780  1
  O  O475  1  0.84210089  0.67193236  0.62732773  1
  O  O476  1  0.88442926  0.51634543  0.57262225  1
  H  H477  1  0.79663370  0.72589969  0.52150781  1
  H  H478  1  0.86727513  0.66076656  0.66059182  1
  C  C479  1  0.85869889  0.58968893  0.55694415  1
  O  O480  1  0.87305257  0.93396989  0.70815097  1
  O  O481  1  0.80657941  0.95425552  0.51032301  1
  C  C482  1  0.63633042  0.85961470  0.90311976  1
  O  O483  1  0.61972731  0.77208227  0.87495035  1
  Zn  Zn484  1  0.56001099  0.72494676  0.92669282  1
  H  H485  1  0.67487022  0.66544213  0.93715849  1
  O  O486  1  0.61930986  0.95801532  0.88997345  1
  C  C487  1  0.68937674  0.73071361  0.97114214  1
  C  C488  1  0.66890008  0.83982322  0.96973131  1
  C  C489  1  0.51884907  0.57420064  0.79478054  1
  C  C490  1  0.60780344  0.53083403  0.99597665  1
  Zn  Zn491  1  0.56366690  0.99781539  0.95773671  1
  O  O492  1  0.53040673  0.65817128  0.76396954  1
  C  C493  1  0.79371270  0.99187326  0.85179717  1
  C  C494  1  0.79650627  0.69006886  0.88194309  1
  H  H495  1  0.90334330  0.99689089  0.82494417  1
  H  H496  1  0.76297233  0.97636164  0.81833928  1
  H  H497  1  0.84593470  0.82295417  0.85500515  1
  C  C498  1  0.87154937  0.64942860  0.85471418  1
  C  C499  1  0.93329606  0.55462972  0.98270454  1
  C  C500  1  0.91597957  0.70763715  0.83762694  1
  N  N501  1  0.78497750  0.58107417  0.89236965  1
  C  C502  1  0.92787505  0.78937532  0.89584086  1
  H  H503  1  0.90882440  0.78762987  0.95270328  1
  C  C504  1  0.83866726  0.73117762  0.86472175  1
  C  C505  1  0.97344945  0.80502627  0.76436305  1
  N  N506  1  0.98428316  0.88164479  0.82150630  1
  C  C507  1  0.83537716  0.99297643  0.81774163  1
  C  C508  1  0.96125664  0.87280809  0.88789763  1
  C  C509  1  0.86124091  0.53036046  0.86251442  1
  H  H510  1  0.97356174  0.93306642  0.93628095  1
  H  H511  1  0.76817920  0.74630035  0.89005576  1
  C  C512  1  0.94159638  0.71721646  0.76808467  1
  C  C513  1  0.79479791  0.99364907  0.93338352  1
  C  C514  1  0.81722469  0.50362515  0.87663024  1
  H  H515  1  0.76232749  0.98779548  0.96146738  1
