# generated using pymatgen
data_Zn2H25C39NO7
_symmetry_space_group_name_H-M   'P 1'
_cell_length_a   26.46384703
_cell_length_b   20.80573936
_cell_length_c   10.34754988
_cell_angle_alpha   90.00000000
_cell_angle_beta   90.00000000
_cell_angle_gamma   90.00000000
_symmetry_Int_Tables_number   1
_chemical_formula_structural   Zn2H25C39NO7
_chemical_formula_sum   'Zn16 H200 C312 N8 O56'
_cell_volume   5697.35996849
_cell_formula_units_Z   8
loop_
 _symmetry_equiv_pos_site_id
 _symmetry_equiv_pos_as_xyz
  1  'x, y, z'
loop_
 _atom_site_type_symbol
 _atom_site_label
 _atom_site_symmetry_multiplicity
 _atom_site_fract_x
 _atom_site_fract_y
 _atom_site_fract_z
 _atom_site_occupancy
  O  O0  1  0.01786359  0.08420545  0.17802980  1
  C  C1  1  0.01631209  0.13822788  0.14989916  1
  C  C2  1  0.12859719  0.05479091  0.24409516  1
  H  H3  1  0.13452941  0.28038243  0.24063550  1
  C  C4  1  0.12882458  0.11585478  0.04440064  1
  C  C5  1  0.20950944  0.22252300  0.46228697  1
  C  C6  1  0.18314890  0.27651592  0.42324901  1
  C  C7  1  0.10956448  0.39644963  0.34969921  1
  H  H8  1  0.12931964  0.17330022  0.35942497  1
  O  O9  1  0.13048631  0.04688053  0.36305374  1
  H  H10  1  0.23221257  0.46680374  0.45598416  1
  H  H11  1  0.13901810  0.36431140  0.14679181  1
  C  C12  1  0.01306653  0.36637628  0.42369170  1
  H  H13  1  0.08300861  0.48127200  0.25750298  1
  C  C14  1  0.13264091  0.17689218  0.25183200  1
  C  C15  1  0.13429309  0.23646861  0.19104958  1
  C  C16  1  0.07203649  0.43962904  0.31451039  1
  C  C17  1  0.02155919  0.42413427  0.35172852  1
  C  C18  1  0.13871963  0.23515211  0.05316959  1
  C  C19  1  0.10251060  0.34228025  0.42978014  1
  C  C20  1  0.13069751  0.11870005  0.18103766  1
  H  H21  1  0.19923714  0.30254169  0.34192075  1
  H  H22  1  0.01721789  0.37537176  0.17008026  1
  H  H23  1  0.14904040  0.40471787  0.32089697  1
  O  O24  1  0.01279537  0.19316250  0.12467613  1
  C  C25  1  0.15578691  0.35791322  0.04708590  1
  O  O26  1  0.12551929  0.00340658  0.17808137  1
  C  C27  1  0.24855963  0.44792785  0.36563576  1
  H  H28  1  0.18707888  0.45169938  0.04561342  1
  C  C29  1  0.13596619  0.29309577  0.48405061  1
  O  O30  1  0.24576014  0.07405048  0.02507743  1
  H  H31  1  0.24415067  0.21257486  0.41179241  1
  C  C32  1  0.05073007  0.32360877  0.45908692  1
  H  H33  1  0.06078451  0.36023926  0.00615143  1
  H  H34  1  0.07105936  0.24704785  0.92706251  1
  C  C35  1  0.12073908  0.25408401  0.59332299  1
  H  H36  1  0.02309945  0.18264578  0.52074257  1
  H  H37  1  0.13058300  0.16288658  0.69822585  1
  C  C38  1  0.04434565  0.27854166  0.88007255  1
  N  N39  1  0.24216485  0.43660090  0.81665515  1
  C  C40  1  0.04749892  0.08409014  0.84376230  1
  H  H41  1  0.22137336  0.32885121  0.70670920  1
  C  C42  1  0.03329501  0.48122885  0.96438197  1
  C  C43  1  0.14614123  0.19903127  0.63159698  1
  O  O44  1  0.21538095  0.09734790  0.70619594  1
  C  C45  1  0.17441131  0.28795697  0.85924534  1
  H  H46  1  0.21534339  0.00685091  0.56647125  1
  C  C47  1  0.01846906  0.25470773  0.76921105  1
  C  C48  1  0.05276407  0.05554840  0.72079743  1
  H  H49  1  0.23626011  0.18327199  0.96250092  1
  H  H50  1  0.08435620  0.26911850  0.64246263  1
  H  H51  1  0.04545790  0.45625679  0.70746974  1
  H  H52  1  0.17069486  0.24311595  0.80243405  1
  H  H53  1  0.03055391  0.17272332  0.94808979  1
  H  H54  1  0.05531204  0.05510743  0.92837017  1
  C  C55  1  0.22266334  0.12712194  0.60462798  1
  C  C56  1  0.04101777  0.09143452  0.60570684  1
  C  C57  1  0.03620989  0.14884253  0.85019133  1
  H  H58  1  0.13598576  0.17134127  0.87521138  1
  H  H59  1  0.11007687  0.45579541  0.90287481  1
  C  C60  1  0.03933804  0.34228034  0.92012735  1
  C  C61  1  0.02654617  0.18562957  0.73622104  1
  C  C62  1  0.13455290  0.17519594  0.98225477  1
  H  H63  1  0.15774587  0.49862811  0.85294569  1
  H  H64  1  0.08404599  0.42637616  0.63092082  1
  C  C65  1  0.21026339  0.39272094  0.87779473  1
  C  C66  1  0.20443998  0.33386246  0.80237025  1
  C  C67  1  0.03031416  0.15623189  0.61138326  1
  C  C68  1  0.15284467  0.29422799  0.98500794  1
  C  C69  1  0.19322516  0.18406617  0.56402805  1
  O  O70  1  0.06911130  0.46746442  0.63999982  1
  C  C71  1  0.00569730  0.38287476  0.84916067  1
  H  H72  1  0.12838640  0.06864488  0.99478113  1
  H  H73  1  0.04177462  0.06823976  0.51343748  1
  C  C74  1  0.18216125  0.40684145  0.99370134  1
  N  N75  1  0.00099099  0.44803808  0.87868238  1
  H  H76  1  0.23747716  0.30093411  0.99353578  1
  H  H77  1  0.04217159  0.27745510  0.50158470  1
  C  C78  1  0.08757074  0.48661199  0.96661900  1
  H  H79  1  0.22664494  0.68218717  0.28775476  1
  H  H80  1  0.17394459  0.63907816  0.09330096  1
  C  C81  1  0.21650991  0.57788193  0.38069429  1
  Zn  Zn82  1  0.17537047  0.92491030  0.13848452  1
  Zn  Zn83  1  0.13630176  0.95426954  0.47447834  1
  H  H84  1  0.19085304  0.74565341  0.18515906  1
  C  C85  1  0.07735247  0.57627899  0.11422699  1
  C  C86  1  0.02473173  0.56515143  0.13277367  1
  H  H87  1  0.02506357  0.65314744  0.27335072  1
  C  C88  1  0.11894918  0.75671264  0.28352170  1
  C  C89  1  0.15272258  0.72403094  0.20049027  1
  C  C90  1  0.06219598  0.67094853  0.25238540  1
  O  O91  1  0.17199640  0.84278203  0.28631994  1
  C  C92  1  0.23440891  0.61985681  0.48282859  1
  H  H93  1  0.04523132  0.75202227  0.37617563  1
  O  O94  1  0.10686192  0.85726924  0.41157378  1
  C  C95  1  0.07229595  0.72898226  0.31505721  1
  C  C96  1  0.09537498  0.63757700  0.16680120  1
  C  C97  1  0.13237683  0.82207210  0.33684144  1
  H  H98  1  0.23806608  0.85916691  0.44530484  1
  C  C99  1  0.14433414  0.66566778  0.14376451  1
  C  C100  1  0.16602211  0.55457650  0.35176228  1
  C  C101  1  0.10933178  0.53580390  0.03509426  1
  H  H102  1  0.10834985  0.84449257  0.12685894  1
  C  C103  1  0.00390785  0.54233890  0.44441217  1
  H  H104  1  0.14983527  0.54060675  0.04426064  1
  O  O105  1  0.11322289  0.87477978  0.05153297  1
  O  O106  1  0.21359555  0.97800869  0.49332971  1
  C  C107  1  0.00485339  0.51655753  0.05581632  1
  H  H108  1  0.00076616  0.59591406  0.19352434  1
  H  H109  1  0.15864768  0.52028223  0.27155682  1
  O  O110  1  0.00891557  0.72069957  0.01102304  1
  H  H111  1  0.03272344  0.51006759  0.48510827  1
  H  H112  1  0.09072744  0.56717401  0.42423699  1
  C  C113  1  0.13017961  0.57934381  0.43573641  1
  C  C114  1  0.23683631  0.63422616  0.82962053  1
  H  H115  1  0.11232351  0.73442975  0.52018853  1
  H  H116  1  0.20703720  0.68261338  0.63606138  1
  C  C117  1  0.10049627  0.71139566  0.61386455  1
  O  O118  1  0.19714252  0.93803109  0.91342578  1
  H  H119  1  0.05589622  0.79340849  0.68803659  1
  O  O120  1  0.07342096  0.95949859  0.60785482  1
  C  C121  1  0.02533563  0.74948707  0.91700419  1
  C  C122  1  0.05535535  0.71119374  0.82011892  1
  C  C123  1  0.14599642  0.62194769  0.54053761  1
  C  C124  1  0.19295655  0.80473946  0.90107305  1
  O  O125  1  0.07983662  0.96248129  0.81896426  1
  Zn  Zn126  1  0.04435489  0.89384589  0.97434656  1
  C  C127  1  0.23012050  0.70652724  0.83281468  1
  C  C128  1  0.10880071  0.64358302  0.64198869  1
  C  C129  1  0.22953691  0.91154127  0.84637703  1
  C  C130  1  0.23023041  0.83920588  0.82874782  1
  C  C131  1  0.19132990  0.52969968  0.84657484  1
  C  C132  1  0.06351031  0.64710944  0.84726463  1
  C  C133  1  0.19187242  0.59624546  0.85640214  1
  C  C134  1  0.09164906  0.61217281  0.75303298  1
  H  H135  1  0.10179588  0.56307855  0.78024430  1
  H  H136  1  0.16102310  0.71252010  0.95924205  1
  H  H137  1  0.04975721  0.62744529  0.93797743  1
  C  C138  1  0.06980498  0.74297632  0.70289742  1
  H  H139  1  0.16239123  0.83310791  0.95719946  1
  C  C140  1  0.19016541  0.73786278  0.90362795  1
  H  H141  1  0.15497498  0.61923014  0.87738399  1
  O  O142  1  0.01541486  0.80948765  0.89655640  1
  C  C143  1  0.24120758  0.50348558  0.82592176  1
  H  H144  1  0.01327257  0.53599479  0.69894668  1
  H  H145  1  0.02164374  0.63288213  0.55197593  1
  C  C146  1  0.19594655  0.64517143  0.56269948  1
  C  C147  1  0.06876647  0.98782737  0.71568460  1
  C  C148  1  0.41313415  0.20953068  0.32069068  1
  C  C149  1  0.38163012  0.38306359  0.07303317  1
  C  C150  1  0.30061364  0.25503440  0.27578771  1
  C  C151  1  0.26633964  0.47252013  0.12811432  1
  H  H152  1  0.34842334  0.35792846  0.10815641  1
  C  C153  1  0.26232433  0.38482380  0.34401428  1
  C  C154  1  0.27413513  0.40844381  0.10285312  1
  C  C155  1  0.29793887  0.18836565  0.25306893  1
  C  C156  1  0.43357651  0.15434304  0.24452113  1
  C  C157  1  0.39800172  0.32567226  0.35111023  1
  C  C158  1  0.27684886  0.29553277  0.18376848  1
  C  C159  1  0.44407963  0.46486709  0.08986722  1
  H  H160  1  0.31477575  0.15255749  0.32332463  1
  H  H161  1  0.37911525  0.45791821  0.22343099  1
  O  O162  1  0.42322659  0.09675617  0.28137809  1
  N  N163  1  0.47561654  0.48922978  0.19009901  1
  C  C164  1  0.37233750  0.24856884  0.00078077  1
  H  H165  1  0.40110800  0.37391094  0.31172942  1
  H  H166  1  0.43391279  0.28520573  0.18973652  1
  C  C167  1  0.27411311  0.36708768  0.21181230  1
  C  C168  1  0.39714024  0.43794031  0.13300555  1
  H  H169  1  0.48898383  0.31505692  0.43730216  1
  C  C170  1  0.27407250  0.16345439  0.14409445  1
  H  H171  1  0.46602919  0.37262826  0.14967507  1
  C  C172  1  0.41349337  0.27544073  0.27766075  1
  C  C173  1  0.39584142  0.19265491  0.44535595  1
  O  O174  1  0.45615216  0.16551133  0.14002521  1
  H  H175  1  0.32270593  0.27266664  0.36150622  1
  O  O176  1  0.29406486  0.05933895  0.20110108  1
  Zn  Zn177  1  0.37195489  0.01500318  0.19628325  1
  H  H178  1  0.34689545  0.44705449  0.45448901  1
  C  C179  1  0.27169665  0.09423729  0.11306615  1
  H  H180  1  0.35450811  0.26588144  0.09270378  1
  Zn  Zn181  1  0.48520237  0.09572787  0.01742221  1
  C  C182  1  0.25835671  0.49133926  0.25902162  1
  Zn  Zn183  1  0.26555363  0.02734579  0.39610182  1
  O  O184  1  0.42000065  0.02900719  0.04070433  1
  H  H185  1  0.36070007  0.05553209  0.38688043  1
  H  H186  1  0.25673175  0.35054588  0.42519985  1
  H  H187  1  0.49654486  0.19185704  0.42387726  1
  H  H188  1  0.39490770  0.14204763  0.47246112  1
  O  O189  1  0.34841278  0.01811435  0.42468273  1
  H  H190  1  0.28403334  0.39218409  0.00266386  1
  C  C191  1  0.25560065  0.26994215  0.06864460  1
  C  C192  1  0.25137498  0.20477907  0.05264897  1
  C  C193  1  0.37909866  0.30975448  0.48124853  1
  C  C194  1  0.30248288  0.35476917  0.76878906  1
  C  C195  1  0.29724161  0.45066902  0.62124228  1
  C  C196  1  0.44816369  0.48434213  0.63681647  1
  C  C197  1  0.37497741  0.24127560  0.51670837  1
  O  O198  1  0.39948217  0.08610182  0.68018258  1
  O  O199  1  0.34475998  0.06743900  0.83623066  1
  C  C200  1  0.42146795  0.20795954  0.76463864  1
  H  H201  1  0.43907645  0.18987307  0.67985143  1
  H  H202  1  0.35711795  0.28418562  0.72424674  1
  C  C203  1  0.46964584  0.44775937  0.97161289  1
  C  C204  1  0.27808540  0.41352101  0.72659037  1
  Zn  Zn205  1  0.26568366  0.04459960  0.83605625  1
  C  C206  1  0.43189898  0.26833152  0.81320904  1
  H  H207  1  0.29028695  0.32882993  0.85960289  1
  C  C208  1  0.38342166  0.16850988  0.83141198  1
  C  C209  1  0.37632357  0.10403240  0.78067988  1
  C  C210  1  0.33923882  0.32944689  0.69148636  1
  H  H211  1  0.45988377  0.29980755  0.76495679  1
  H  H212  1  0.35477554  0.22733386  0.60861253  1
  H  H213  1  0.47518103  0.37191368  0.82135917  1
  C  C214  1  0.45592379  0.38811898  0.91704939  1
  C  C215  1  0.35089384  0.35592877  0.56434294  1
  C  C216  1  0.41345689  0.35806189  0.97112598  1
  C  C217  1  0.46314782  0.42294075  0.61041276  1
  H  H218  1  0.43327015  0.39031350  0.57494695  1
  C  C219  1  0.33302450  0.42128857  0.54217217  1
  C  C220  1  0.36096075  0.18873727  0.94709503  1
  C  C221  1  0.40540803  0.28979405  0.93080574  1
  H  H222  1  0.28038934  0.49844012  0.60102398  1
  O  O223  1  0.25537707  0.11038012  0.51929625  1
  H  H224  1  0.40219675  0.00858631  0.97476232  1
  H  H225  1  0.33392398  0.15845001  0.99894620  1
  C  C226  1  0.33229539  0.69621305  0.09242890  1
  N  N227  1  0.25289623  0.55677887  0.29047970  1
  C  C228  1  0.35386352  0.82691798  0.29336732  1
  H  H229  1  0.40419365  0.75056058  0.35143957  1
  C  C230  1  0.29226855  0.91256419  0.23625229  1
  C  C231  1  0.47780159  0.67251891  0.31937513  1
  C  C232  1  0.27513211  0.60327658  0.21459118  1
  H  H233  1  0.33557509  0.53647785  0.14447306  1
  C  C234  1  0.49199871  0.93983190  0.45376965  1
  H  H235  1  0.42777286  0.56042659  0.49004311  1
  C  C236  1  0.30670692  0.85720125  0.32106322  1
  C  C237  1  0.32047258  0.58475232  0.14530967  1
  H  H238  1  0.27764109  0.76515054  0.18600271  1
  C  C239  1  0.33494372  0.74755992  0.46406990  1
  C  C240  1  0.28866735  0.71361886  0.16913854  1
  C  C241  1  0.37522360  0.63762737  0.47683343  1
  H  H242  1  0.26691622  0.51273803  0.05655726  1
  O  O243  1  0.32341611  0.93175362  0.15437830  1
  C  C244  1  0.48621469  0.87122609  0.42141740  1
  C  C245  1  0.46603617  0.54370554  0.26364184  1
  H  H246  1  0.27459611  0.63509100  0.48803702  1
  C  C247  1  0.43015982  0.58878186  0.21689653  1
  C  C248  1  0.48333737  0.74380969  0.35086000  1
  H  H249  1  0.36306777  0.62772430  0.37782134  1
  C  C250  1  0.36901404  0.77416086  0.36765269  1
  C  C251  1  0.43550555  0.65411860  0.23847031  1
  C  C252  1  0.34741021  0.63090308  0.07562963  1
  H  H253  1  0.38135229  0.84457776  0.21438588  1
  C  C254  1  0.27587617  0.83683469  0.42355286  1
  H  H255  1  0.39919441  0.56984967  0.15698689  1
  C  C256  1  0.25895999  0.66861329  0.23161718  1
  H  H257  1  0.40960210  0.68861121  0.19433999  1
  C  C258  1  0.28809953  0.78107505  0.48238836  1
  C  C259  1  0.46752168  0.76361281  0.47484691  1
  O  O260  1  0.25061927  0.94111641  0.24997539  1
  C  C261  1  0.49873331  0.56142752  0.37792984  1
  H  H262  1  0.38004517  0.61807415  0.01284362  1
  C  C263  1  0.36315881  0.74720684  0.02468747  1
  H  H264  1  0.44013754  0.70740803  0.02814232  1
  C  C265  1  0.48694163  0.52315862  0.70089521  1
  H  H266  1  0.28974156  0.70939792  0.70161435  1
  C  C267  1  0.28593816  0.60612699  0.81533613  1
  C  C268  1  0.42759691  0.90123591  0.80710703  1
  C  C269  1  0.41678125  0.74892152  0.99854491  1
  H  H270  1  0.45267270  0.84072409  0.60691662  1
  O  O271  1  0.26347023  0.94360260  0.79052436  1
  C  C272  1  0.26482672  0.74180354  0.75669447  1
  H  H273  1  0.37364134  0.75883581  0.71367058  1
  H  H274  1  0.47585832  0.80545364  0.89492790  1
  H  H275  1  0.32514736  0.51841064  0.80220199  1
  C  C276  1  0.43732389  0.80103167  0.93382096  1
  H  H277  1  0.32200989  0.63315172  0.81144822  1
  O  O278  1  0.47374412  0.96277196  0.56144551  1
  C  C279  1  0.40394020  0.85141604  0.89024344  1
  H  H280  1  0.33143734  0.88696533  0.86157370  1
  C  C281  1  0.43000547  0.61489045  0.66289923  1
  C  C282  1  0.35971876  0.69546863  0.54609985  1
  C  C283  1  0.38021156  0.71144508  0.66864350  1
  O  O284  1  0.39880213  0.94249634  0.75556032  1
  C  C285  1  0.35212079  0.84571916  0.90892777  1
  C  C286  1  0.41261157  0.66992341  0.73168474  1
  C  C287  1  0.26514622  0.80908947  0.74651251  1
  H  H288  1  0.43021901  0.68166684  0.82756003  1
  H  H289  1  0.29060038  0.83655019  0.68042372  1
  H  H290  1  0.45372215  0.72371352  0.54211391  1
  H  H291  1  0.25827866  0.75841924  0.54323121  1
  C  C292  1  0.28757463  0.53990392  0.81095179  1
  O  O293  1  0.47361456  0.90367219  0.80031737  1
  N  N294  1  0.47485987  0.58712733  0.71351656  1
  C  C295  1  0.41113116  0.60259770  0.53457395  1
  C  C296  1  0.46525539  0.82687104  0.50957152  1
  C  C297  1  0.32923017  0.79576032  0.97625135  1
  Zn  Zn298  1  0.39926332  0.99324256  0.57901145  1
  H  H299  1  0.40912768  0.50153561  0.62768925  1
  H  H300  1  0.49970596  0.57776503  0.97741201  1
  H  H301  1  0.28643214  0.79088954  0.98548104  1
  H  H302  1  0.52601141  0.27762314  0.21213614  1
  C  C303  1  0.56051692  0.46461707  0.28744933  1
  C  C304  1  0.61737046  0.17944074  0.33363831  1
  C  C305  1  0.51219056  0.44601916  0.22784292  1
  O  O306  1  0.65255558  0.06528437  0.44234922  1
  H  H307  1  0.61671719  0.13299675  0.28174807  1
  C  C308  1  0.64241936  0.18349513  0.45659194  1
  C  C309  1  0.60382317  0.29346748  0.36707897  1
  Zn  Zn310  1  0.70994366  0.01994969  0.36213385  1
  H  H311  1  0.69930988  0.16565095  0.15139097  1
  H  H312  1  0.62436750  0.42581636  0.39330827  1
  C  C313  1  0.53450688  0.32979219  0.22558530  1
  C  C314  1  0.57653257  0.35009599  0.30642047  1
  Zn  Zn315  1  0.57592280  0.03296034  0.38761626  1
  C  C316  1  0.71669101  0.26586168  0.21343316  1
  H  H317  1  0.66234609  0.36386982  0.18983104  1
  C  C318  1  0.58937363  0.41499771  0.34133526  1
  C  C319  1  0.63245146  0.29700330  0.48191687  1
  H  H320  1  0.68293011  0.28711908  0.16695227  1
  H  H321  1  0.64617149  0.47153839  0.16958401  1
  H  H322  1  0.57583343  0.23869535  0.19403372  1
  C  C323  1  0.69251252  0.39419546  0.22665646  1
  C  C324  1  0.59465175  0.23598271  0.28829843  1
  C  C325  1  0.72462663  0.19784434  0.20477275  1
  C  C326  1  0.68125206  0.45920416  0.22210355  1
  C  C327  1  0.74178052  0.37703057  0.27336859  1
  O  O328  1  0.74736096  0.06824673  0.19525953  1
  C  C329  1  0.50270508  0.38097314  0.19172473  1
  O  O330  1  0.52832029  0.09800860  0.49535484  1
  O  O331  1  0.56003984  0.14954518  0.04319382  1
  H  H332  1  0.55533857  0.26576401  0.02620025  1
  H  H333  1  0.70632689  0.44422591  0.01735471  1
  H  H334  1  0.73772554  0.27300452  0.86921353  1
  C  C335  1  0.73350066  0.40409014  0.64670368  1
  O  O336  1  0.55800408  0.08501307  0.69316201  1
  H  H337  1  0.67984489  0.32403301  0.68569627  1
  O  O338  1  0.67984291  0.11786438  0.61177784  1
  H  H339  1  0.56808498  0.19785671  0.81288763  1
  O  O340  1  0.70307926  0.03456039  0.82341224  1
  C  C341  1  0.69351218  0.38164723  0.85159861  1
  C  C342  1  0.52107670  0.32324066  0.62831004  1
  H  H343  1  0.72097524  0.03164715  0.74326555  1
  Zn  Zn344  1  0.63734087  0.06230268  0.76096431  1
  C  C345  1  0.69719333  0.27102230  0.90634658  1
  O  O346  1  0.62410661  0.10124434  0.94957962  1
  H  H347  1  0.55143922  0.31876073  0.82396556  1
  C  C348  1  0.54051081  0.12187942  0.60215688  1
  H  H349  1  0.58779455  0.41729974  0.71368940  1
  C  C350  1  0.54137800  0.28982780  0.73942175  1
  C  C351  1  0.53495148  0.19070667  0.61697680  1
  C  C352  1  0.51248372  0.39444605  0.63435535  1
  H  H353  1  0.67553667  0.23803103  0.62042622  1
  C  C354  1  0.55306511  0.22523817  0.72716625  1
  C  C355  1  0.74473414  0.47812337  0.84264544  1
  H  H356  1  0.69100889  0.16589349  0.88776309  1
  C  C357  1  0.54973740  0.43460718  0.69596218  1
  C  C358  1  0.71239336  0.43766865  0.91394288  1
  C  C359  1  0.66705231  0.32699572  0.92313664  1
  C  C360  1  0.69833761  0.36898177  0.71948840  1
  C  C361  1  0.61649862  0.33096767  0.97055362  1
  C  C362  1  0.62278047  0.21645910  0.95861273  1
  C  C363  1  0.67302534  0.21348526  0.91013762  1
  H  H364  1  0.55119983  0.04960237  0.94307967  1
  C  C365  1  0.51097315  0.22060754  0.50807377  1
  O  O366  1  0.52033260  0.02696023  0.91771225  1
  C  C367  1  0.53656015  0.49765178  0.72606035  1
  C  C368  1  0.65123702  0.23785152  0.53393774  1
  C  C369  1  0.50516964  0.28652367  0.51556507  1
  C  C370  1  0.59899386  0.15172899  0.97699454  1
  H  H371  1  0.50250096  0.47311821  0.93609105  1
  C  C372  1  0.59490467  0.27103788  0.98878041  1
  H  H373  1  0.59495392  0.37693266  0.97578385  1
  H  H374  1  0.63875177  0.34376436  0.53015285  1
  H  H375  1  0.74197977  0.38828543  0.54562454  1
  C  C376  1  0.66001730  0.12027694  0.50325063  1
  C  C377  1  0.50247261  0.78940053  0.25968400  1
  H  H378  1  0.56981577  0.79256302  0.40329626  1
  H  H379  1  0.62645606  0.63445020  0.15238965  1
  C  C380  1  0.61239765  0.77213453  0.09502719  1
  H  H381  1  0.56747327  0.51684674  0.29045301  1
  C  C382  1  0.57712710  0.89914525  0.05317834  1
  N  N383  1  0.69890535  0.57181642  0.25371906  1
  O  O384  1  0.61504211  0.99033823  0.21640902  1
  C  C385  1  0.72136493  0.68333796  0.26697730  1
  C  C386  1  0.64686388  0.56972427  0.45541934  1
  O  O387  1  0.67438691  0.93016652  0.30884292  1
  H  H388  1  0.56340986  0.94821997  0.04590820  1
  C  C389  1  0.62672744  0.63984987  0.26244699  1
  C  C390  1  0.63536082  0.82220938  0.16072715  1
  C  C391  1  0.61587310  0.88719372  0.14483366  1
  C  C392  1  0.63836663  0.93574926  0.23259320  1
  C  C393  1  0.65475023  0.58745495  0.32104799  1
  H  H394  1  0.69232862  0.69410593  0.33908406  1
  C  C395  1  0.50267949  0.85357225  0.29594990  1
  H  H396  1  0.54473690  0.65509972  0.10060598  1
  H  H397  1  0.58263464  0.72873786  0.29558714  1
  H  H398  1  0.62774030  0.72297834  0.08490154  1
  C  C399  1  0.60548900  0.68746885  0.33489295  1
  H  H400  1  0.66650318  0.81248752  0.23045104  1
  O  O401  1  0.51476663  0.97263224  0.37161752  1
  H  H402  1  0.52061415  0.52692670  0.43328694  1
  H  H403  1  0.52006532  0.88941489  0.22812178  1
  C  C404  1  0.61362514  0.67972110  0.47229558  1
  H  H405  1  0.51748326  0.77538217  0.16222764  1
  C  C406  1  0.73274007  0.61976128  0.21711849  1
  C  C407  1  0.50708453  0.62547748  0.39510535  1
  H  H408  1  0.66158273  0.52392527  0.48896248  1
  C  C409  1  0.57212325  0.78647775  0.00491710  1
  C  C410  1  0.71625020  0.50748041  0.26326523  1
  H  H411  1  0.53402068  0.64395775  0.47131528  1
  C  C412  1  0.58881646  0.79691947  0.49594095  1
  C  C413  1  0.63411121  0.74207282  0.67629633  1
  C  C414  1  0.61055366  0.73888353  0.55004631  1
  H  H415  1  0.55464496  0.78031283  0.75583378  1
  O  O416  1  0.73925525  0.97727331  0.53545914  1
  H  H417  1  0.61334070  0.60130822  0.63105277  1
  H  H418  1  0.64855251  0.69800009  0.72198094  1
  O  O419  1  0.59953740  0.96640217  0.71743977  1
  C  C420  1  0.63764405  0.79993980  0.74021631  1
  C  C421  1  0.61817232  0.91306374  0.75953064  1
  H  H422  1  0.65396971  0.80805899  0.83629171  1
  C  C423  1  0.62662694  0.61802903  0.53183891  1
  H  H424  1  0.56420826  0.52856185  0.77073753  1
  O  O425  1  0.64973903  0.91247394  0.85124602  1
  C  C426  1  0.52350402  0.68749192  0.72939018  1
  H  H427  1  0.71841697  0.54221072  0.61711727  1
  C  C428  1  0.51132856  0.62280040  0.92399993  1
  C  C429  1  0.61387149  0.85525052  0.68384915  1
  C  C430  1  0.54963277  0.72726088  0.94181536  1
  C  C431  1  0.59064666  0.85446132  0.56104389  1
  C  C432  1  0.54283793  0.73622643  0.80619131  1
  H  H433  1  0.52267627  0.86130358  0.91422270  1
  Zn  Zn434  1  0.72942146  0.93969874  0.89419554  1
  H  H435  1  0.51923372  0.69771660  0.62377799  1
  C  C436  1  0.73611151  0.83974396  0.53599067  1
  H  H437  1  0.69956794  0.86361187  0.55160838  1
  Zn  Zn438  1  0.51832633  0.98963334  0.72955912  1
  H  H439  1  0.56846064  0.89417987  0.51806560  1
  H  H440  1  0.70852059  0.65742391  0.53083046  1
  C  C441  1  0.50489482  0.63064215  0.78553611  1
  C  C442  1  0.55249998  0.84926078  0.98787508  1
  C  C443  1  0.74304877  0.77243679  0.54041248  1
  C  C444  1  0.74695142  0.63618277  0.56027639  1
  C  C445  1  0.53587825  0.66698171  0.99947234  1
  H  H446  1  0.70681174  0.74864559  0.55646965  1
  H  H447  1  0.81049175  0.40962013  0.38680403  1
  C  C448  1  0.80204002  0.28081923  0.31637133  1
  H  H449  1  0.85037499  0.19970236  0.32326235  1
  C  C450  1  0.89274204  0.38800189  0.47787738  1
  H  H451  1  0.91677234  0.32179321  0.31674236  1
  H  H452  1  0.80102637  0.26757381  0.08357930  1
  C  C453  1  0.93420456  0.15748601  0.34695349  1
  Zn  Zn454  1  0.83215348  0.01109128  0.06507828  1
  C  C455  1  0.94733746  0.42715180  0.21982460  1
  C  C456  1  0.97564181  0.37553281  0.15841035  1
  C  C457  1  0.75509355  0.30640675  0.26702288  1
  C  C458  1  0.76433656  0.48843420  0.32217968  1
  H  H459  1  0.94582622  0.22398350  0.18446200  1
  C  C460  1  0.91493395  0.27374511  0.35319805  1
  O  O461  1  0.82853014  0.08615260  0.20238925  1
  H  H462  1  0.87469298  0.46868449  0.25339412  1
  C  C463  1  0.89498819  0.43302936  0.19539130  1
  H  H464  1  0.97460121  0.29485584  0.03831893  1
  H  H465  1  0.82825815  0.39463112  0.10893869  1
  H  H466  1  0.91877379  0.39113439  0.39448549  1
  C  C467  1  0.81072711  0.21517679  0.30364740  1
  C  C468  1  0.77242799  0.17678557  0.25344022  1
  H  H469  1  0.83277630  0.30906204  0.35239259  1
  C  C470  1  0.86989506  0.38715450  0.11688584  1
  Zn  Zn471  1  0.93495693  0.06451485  0.41728140  1
  C  C472  1  0.95056985  0.33134259  0.08264196  1
  C  C473  1  0.89581205  0.33373999  0.05980717  1
  C  C474  1  0.93380539  0.22045460  0.28870455  1
  C  C475  1  0.77643116  0.42400002  0.32957167  1
  C  C476  1  0.78338721  0.10542197  0.21822347  1
  C  C477  1  0.82646784  0.24903995  0.00259841  1
  H  H478  1  0.97584808  0.35232615  0.45552833  1
  H  H479  1  0.88772534  0.48955581  0.49430886  1
  C  C480  1  0.89643557  0.26467651  0.48197228  1
  N  N481  1  0.97629012  0.45747987  0.31388979  1
  C  C482  1  0.90945469  0.15328245  0.46739352  1
  C  C483  1  0.88197560  0.32706994  0.54324628  1
  C  C484  1  0.96203553  0.48628713  0.82856780  1
  C  C485  1  0.88987927  0.20403863  0.54316291  1
  C  C486  1  0.83750201  0.43835623  0.63690487  1
  H  H487  1  0.94081628  0.38816989  0.70491685  1
  C  C488  1  0.85967927  0.16246591  0.86230656  1
  H  H489  1  0.96308998  0.28261845  0.61154397  1
  C  C490  1  0.87431755  0.44326326  0.53209174  1
  C  C491  1  0.97194708  0.35704839  0.74596895  1
  C  C492  1  0.83240914  0.37860101  0.70678261  1
  C  C493  1  0.85865352  0.09422129  0.82210065  1
  H  H494  1  0.81037095  0.37501261  0.79800683  1
  H  H495  1  0.93608742  0.17174886  0.78018686  1
  H  H496  1  0.87210288  0.19989577  0.63926461  1
  C  C497  1  0.90653867  0.19363903  0.83604798  1
  O  O498  1  0.82971076  0.05323010  0.86980278  1
  H  H499  1  0.94961475  0.28042264  0.89078415  1
  C  C500  1  0.85581135  0.32311015  0.66069462  1
  C  C501  1  0.91380406  0.25381467  0.89598821  1
  O  O502  1  0.88923772  0.07640306  0.73444887  1
  H  H503  1  0.89963485  0.44177139  0.94015785  1
  N  N504  1  0.79959501  0.48223038  0.65040577  1
  H  H505  1  0.85518446  0.28269829  0.72823653  1
  C  C506  1  0.91218323  0.48426650  0.88508408  1
  C  C507  1  0.98308330  0.29676661  0.70004356  1
  C  C508  1  0.82158335  0.18939887  0.94595127  1
  H  H509  1  0.79010412  0.16257294  0.98138217  1
  C  C510  1  0.75580213  0.45781246  0.71575788  1
  C  C511  1  0.87354836  0.28055943  0.97725314  1
  C  C512  1  0.89288644  0.75381276  0.11088221  1
  C  C513  1  0.92594202  0.55664474  0.29751050  1
  C  C514  1  0.96564825  0.51892423  0.35877336  1
  C  C515  1  0.75743414  0.73030886  0.24718665  1
  O  O516  1  0.94180481  0.96007680  0.41738263  1
  H  H517  1  0.95443728  0.73905659  0.24969501  1
  H  H518  1  0.85280471  0.93155687  0.23717790  1
  C  C519  1  0.83413131  0.82966612  0.22449281  1
  H  H520  1  0.79944277  0.83256010  0.29110928  1
  C  C521  1  0.80467938  0.71766625  0.17850357  1
  C  C522  1  0.81309436  0.65451548  0.12729923  1
  C  C523  1  0.86303500  0.88303547  0.19841926  1
  C  C524  1  0.95907546  0.71813160  0.45654257  1
  H  H525  1  0.90095804  0.53746342  0.22450869  1
  C  C526  1  0.95801285  0.64652115  0.43338998  1
  H  H527  1  0.88987494  0.64748169  0.30472192  1
  C  C528  1  0.90552404  0.87142642  0.11909437  1
  H  H529  1  0.93746956  0.85975351  0.28434591  1
  C  C530  1  0.94824032  0.82589379  0.36090783  1
  H  H531  1  0.84853118  0.64242830  0.08148564  1
  O  O532  1  0.91034347  0.97952426  0.09003625  1
  C  C533  1  0.84452408  0.76542983  0.17154716  1
  H  H534  1  0.77999651  0.55954766  0.09899415  1
  C  C535  1  0.95476885  0.76056981  0.35043361  1
  O  O536  1  0.78001301  0.94473009  0.03332671  1
  C  C537  1  0.77641408  0.60760431  0.13939057  1
  C  C538  1  0.92194361  0.61807201  0.34493491  1
  C  C539  1  0.93276999  0.92985455  0.06945926  1
  C  C540  1  0.91823339  0.80957518  0.07425326  1
  H  H541  1  0.79879244  0.90660796  0.00739117  1
  H  H542  1  0.78847923  0.52596846  0.36647406  1
  H  H543  1  0.89757226  0.70796866  0.05873547  1
  H  H544  1  0.75400454  0.77764989  0.29651084  1
  C  C545  1  0.95395109  0.85037313  0.48628333  1
  C  C546  1  0.99864671  0.60706734  0.47886152  1
  H  H547  1  0.96431510  0.50969121  0.07513773  1
  H  H548  1  0.86344866  0.88010797  0.47748519  1
  O  O549  1  0.97339438  0.92926991  0.00162397  1
  H  H550  1  0.87243962  0.75955071  0.49844230  1
  H  H551  1  0.94970860  0.80204448  0.00093998  1
  C  C552  1  0.94343566  0.92109388  0.50946206  1
  C  C553  1  0.83742011  0.78751442  0.81841128  1
  C  C554  1  0.97917165  0.54188476  0.75877725  1
  C  C555  1  0.79084072  0.74358012  0.52623277  1
  O  O556  1  0.82363338  0.97676563  0.51974866  1
  C  C557  1  0.89134527  0.77889103  0.82205482  1
  C  C558  1  0.78133942  0.87582928  0.51425780  1
  C  C559  1  0.80175713  0.54789941  0.61765376  1
  C  C560  1  0.83358845  0.78499265  0.50349008  1
  C  C561  1  0.88381318  0.54026999  0.87352679  1
  C  C562  1  0.80429916  0.73583822  0.81945515  1
  C  C563  1  0.96366839  0.81265613  0.59677352  1
  C  C564  1  0.84847232  0.58319952  0.59889450  1
  C  C565  1  0.90408307  0.59993945  0.81858940  1
  O  O566  1  0.83725349  0.90536654  0.82087155  1
  C  C567  1  0.81353219  0.85452142  0.82002840  1
  C  C568  1  0.91006958  0.71855345  0.82502556  1
  H  H569  1  0.91520762  0.82224721  0.82500355  1
  H  H570  1  0.95195430  0.71049631  0.83655497  1
  C  C571  1  0.77992018  0.94817917  0.52429352  1
  C  C572  1  0.87748016  0.66359581  0.82915387  1
  C  C573  1  0.95147197  0.59861561  0.75035886  1
  H  H574  1  0.88785763  0.56532105  0.59254435  1
  O  O575  1  0.93819085  0.94030293  0.62399094  1
  C  C576  1  0.82390689  0.67382550  0.83389587  1
  H  H577  1  0.84348395  0.53752303  0.90425006  1
  C  C578  1  0.96588023  0.74630996  0.58348720  1
  Zn  Zn579  1  0.86571286  0.97653249  0.69395092  1
  H  H580  1  0.96449608  0.64050238  0.69343642  1
  H  H581  1  0.96927201  0.71438670  0.67051319  1
  H  H582  1  0.79778408  0.63368308  0.83825998  1
  H  H583  1  0.97216635  0.83698345  0.69039751  1
  O  O584  1  0.76602845  0.85670703  0.82239944  1
  H  H585  1  0.76261152  0.74802191  0.82111804  1
  C  C586  1  0.84239817  0.64624054  0.55636805  1
  C  C587  1  0.79270039  0.67362975  0.54860412  1
  H  H588  1  0.75951999  0.52410441  0.87714247  1
  C  C589  1  0.75127137  0.57269113  0.60360735  1
  H  H590  1  0.87698232  0.67235023  0.52449376  1
  C  C591  1  0.83105663  0.84965291  0.50001368  1
