# generated using pymatgen
data_Zn2H9(C3O)8
_symmetry_space_group_name_H-M   'P 1'
_cell_length_a   13.81052583
_cell_length_b   8.27889244
_cell_length_c   19.77937212
_cell_angle_alpha   90.00000000
_cell_angle_beta   90.00000000
_cell_angle_gamma   90.00000000
_symmetry_Int_Tables_number   1
_chemical_formula_structural   Zn2H9(C3O)8
_chemical_formula_sum   'Zn8 H36 C96 O32'
_cell_volume   2261.49147859
_cell_formula_units_Z   4
loop_
 _symmetry_equiv_pos_site_id
 _symmetry_equiv_pos_as_xyz
  1  'x, y, z'
loop_
 _atom_site_type_symbol
 _atom_site_label
 _atom_site_symmetry_multiplicity
 _atom_site_fract_x
 _atom_site_fract_y
 _atom_site_fract_z
 _atom_site_occupancy
  C  C0  1  0.28894547  0.30296619  0.07586540  1
  O  O1  1  0.15327259  0.37159561  0.15049909  1
  O  O2  1  0.28657022  0.25388810  0.18888763  1
  C  C3  1  0.39010172  0.29884212  0.07444587  1
  H  H4  1  0.42662919  0.30208384  0.12323156  1
  C  C5  1  0.23618912  0.30202830  0.14424941  1
  C  C6  1  0.23221957  0.33582101  0.02168251  1
  H  H7  1  0.15365516  0.35415506  0.02862833  1
  C  C8  1  0.43942537  0.30959924  0.01160436  1
  O  O9  1  0.04344603  0.03347612  0.00242203  1
  C  C10  1  0.03269932  0.37855376  0.41820715  1
  C  C11  1  0.10275371  0.36279028  0.36780379  1
  C  C12  1  0.15547013  0.20783315  0.36441710  1
  O  O13  1  0.12512612  0.08405837  0.39378521  1
  O  O14  1  0.23108153  0.20123370  0.32787930  1
  H  H15  1  0.02264526  0.28247197  0.45704376  1
  H  H16  1  0.18171154  0.46785522  0.28776276  1
  C  C17  1  0.12087959  0.48827090  0.32200935  1
  Zn  Zn18  1  0.29051082  0.00346388  0.26649564  1
  O  O19  1  0.30598195  0.14074140  0.72299320  1
  C  C20  1  0.44424718  0.30132591  0.67908821  1
  H  H21  1  0.45834858  0.08598341  0.73954444  1
  C  C22  1  0.41909726  0.30780265  0.60512399  1
  H  H23  1  0.07851859  0.28566468  0.64711889  1
  H  H24  1  0.13495708  0.13830876  0.69527377  1
  O  O25  1  0.39159337  0.19393954  0.57167809  1
  C  C26  1  0.40396532  0.17419631  0.71922025  1
  O  O27  1  0.44052855  0.44529168  0.57701469  1
  H  H28  1  0.05497281  0.45032544  0.54314558  1
  C  C29  1  0.00263653  0.29249717  0.62300702  1
  C  C30  1  0.10474033  0.13193275  0.74670443  1
  Zn  Zn31  1  0.43909733  0.36677666  0.78257544  1
  C  C32  1  0.16789659  0.09646912  0.79998743  1
  C  C33  1  0.37970039  0.33118833  0.95393805  1
  C  C34  1  0.28240239  0.35260675  0.95979415  1
  C  C35  1  0.27554709  0.07960428  0.78913820  1
  O  O36  1  0.13017334  0.42874231  0.90294273  1
  C  C37  1  0.22211309  0.39734591  0.89914458  1
  H  H38  1  0.41016817  0.35965440  0.90233626  1
  O  O39  1  0.32952982  0.03879077  0.83191995  1
  C  C40  1  0.00327270  0.12601602  0.76347427  1
  C  C41  1  0.13949285  0.06724041  0.86694191  1
  C  C42  1  0.04123716  0.07785852  0.88065543  1
  O  O43  1  0.26945907  0.43422933  0.84982394  1
  H  H44  1  0.19415070  0.02603892  0.90392293  1
  O  O45  1  0.24782797  0.75887423  0.10001721  1
  Zn  Zn46  1  0.12819035  0.62390526  0.14245139  1
  O  O47  1  0.39728066  0.67520021  0.10290773  1
  C  C48  1  0.33046133  0.74823240  0.12561266  1
  C  C49  1  0.34822533  0.85130450  0.19188083  1
  C  C50  1  0.41922823  0.88169794  0.22605083  1
  O  O51  1  0.13744740  0.75244805  0.23413984  1
  H  H52  1  0.49713372  0.84266473  0.22482827  1
  C  C53  1  0.06079814  0.62546013  0.32428122  1
  O  O54  1  0.36528061  0.77614651  0.45759447  1
  O  O55  1  0.32570775  0.75636578  0.35065872  1
  C  C56  1  0.07446037  0.76857858  0.27817740  1
  C  C57  1  0.37683171  0.72780938  0.40000597  1
  H  H58  1  0.44113758  0.63421166  0.27908340  1
  O  O59  1  0.02134858  0.88938499  0.28366909  1
  C  C60  1  0.46682147  0.62146594  0.38880366  1
  C  C61  1  0.49370251  0.59659652  0.32113142  1
  C  C62  1  0.04618902  0.70141877  0.62849184  1
  Zn  Zn63  1  0.34913165  0.65699025  0.55819645  1
  O  O64  1  0.45229837  0.78441965  0.61401454  1
  O  O65  1  0.38524180  0.67065688  0.70174595  1
  C  C66  1  0.15279893  0.64248153  0.62209607  1
  H  H67  1  0.05641004  0.82694375  0.53309764  1
  C  C68  1  0.44370880  0.76386031  0.67936894  1
  O  O69  1  0.20282702  0.67922744  0.57102812  1
  H  H70  1  0.01436967  0.56904320  0.71798338  1
  O  O71  1  0.18308292  0.55829854  0.66809325  1
  C  C72  1  0.00892896  0.78943305  0.57459412  1
  C  C73  1  0.48870667  0.66649072  0.94183773  1
  H  H74  1  0.43489679  0.80573183  0.81158684  1
  H  H75  1  0.43077586  0.61288851  0.97437308  1
  O  O76  1  0.46773302  0.81398801  0.93751549  1
  H  H77  1  0.14509659  0.56315547  0.81307390  1
  C  C78  1  0.07769296  0.51593834  0.83499662  1
  C  C79  1  0.77811602  0.20843864  0.08711978  1
  C  C80  1  0.75817667  0.14973529  0.15095253  1
  C  C81  1  0.61604438  0.27366405  0.04884626  1
  H  H82  1  0.59931716  0.22464092  0.09913562  1
  H  H83  1  0.67953364  0.14623282  0.16459078  1
  C  C84  1  0.92639941  0.12158679  0.19909241  1
  C  C85  1  0.71607982  0.27190996  0.03324890  1
  Zn  Zn86  1  0.92593565  0.17012530  0.09516293  1
  C  C87  1  0.84019290  0.10430883  0.20649127  1
  H  H88  1  0.98106162  0.11452181  0.23877583  1
  O  O89  1  0.68326573  0.40649030  0.22452240  1
  H  H90  1  0.71425035  0.43017384  0.34086467  1
  O  O91  1  0.84380607  0.12476763  0.32649861  1
  C  C92  1  0.88677117  0.48684475  0.46746599  1
  C  C93  1  0.80031313  0.05015627  0.28082386  1
  C  C94  1  0.70498480  0.47655073  0.47236439  1
  C  C95  1  0.64773372  0.48736084  0.35869987  1
  Zn  Zn96  1  0.97007502  0.02513727  0.37105003  1
  O  O97  1  0.92870470  0.00120062  0.47593999  1
  C  C98  1  0.91716188  0.23828833  0.65618939  1
  C  C99  1  0.71222167  0.37841707  0.53223851  1
  C  C100  1  0.89885676  0.40270821  0.53218994  1
  C  C101  1  0.91965886  0.13974672  0.71687879  1
  C  C102  1  0.82303785  0.25529879  0.62121873  1
  C  C103  1  0.80820674  0.35294917  0.56204383  1
  C  C104  1  0.64075242  0.19558489  0.61669562  1
  H  H105  1  0.57708225  0.12575485  0.63353238  1
  H  H106  1  0.55482195  0.30121837  0.53498128  1
  C  C107  1  0.74421678  0.08267264  0.70598563  1
  C  C108  1  0.62673777  0.30196853  0.56117571  1
  C  C109  1  0.73662828  0.17283208  0.64247646  1
  C  C110  1  0.52674401  0.41738611  0.69277978  1
  C  C111  1  0.83126400  0.07142612  0.73890040  1
  H  H112  1  0.56558815  0.46890364  0.64858966  1
  C  C113  1  0.99242048  0.38817399  0.56496292  1
  C  C114  1  0.65478512  0.01107424  0.73711392  1
  C  C115  1  0.83061738  0.46436113  0.84110005  1
  C  C116  1  0.72999806  0.44810521  0.84774724  1
  C  C117  1  0.59121572  0.41744589  0.94350186  1
  C  C118  1  0.69396810  0.39746674  0.91802203  1
  C  C119  1  0.75198062  0.33993711  0.96964818  1
  Zn  Zn120  1  0.88583859  0.37337599  0.93045532  1
  C  C121  1  0.58288139  0.43736135  0.75801933  1
  H  H122  1  0.69762916  0.06327563  0.84201351  1
  C  C123  1  0.97224534  0.10240900  0.83151154  1
  C  C124  1  0.54616738  0.33049546  0.99862044  1
  C  C125  1  0.67800799  0.48402643  0.77969524  1
  H  H126  1  0.89591622  0.08734701  0.84414225  1
  O  O127  1  0.89312686  0.01878901  0.95387341  1
  H  H128  1  0.83612684  0.00258590  0.78708975  1
  C  C129  1  0.99728185  0.04548373  0.95042607  1
  C  C130  1  0.64532147  0.00881635  0.80753439  1
  C  C131  1  0.93423337  0.60699659  0.05282128  1
  C  C132  1  0.82615845  0.65018073  0.04929118  1
  O  O133  1  0.98248903  0.60082336  0.10697331  1
  O  O134  1  0.59080161  0.59306069  0.18574906  1
  Zn  Zn135  1  0.69296318  0.62965334  0.10775513  1
  C  C136  1  0.75721909  0.66840442  0.01226519  1
  C  C137  1  0.62142653  0.50723448  0.23389790  1
  C  C138  1  0.52788324  0.58119567  0.44226566  1
  C  C139  1  0.58179437  0.52816534  0.30880193  1
  H  H140  1  0.93808660  0.74007379  0.36597015  1
  O  O141  1  0.73137497  0.96582409  0.28630236  1
  H  H142  1  0.78714286  0.61565973  0.40010214  1
  C  C143  1  0.79335807  0.53660884  0.44514331  1
  C  C144  1  0.98656528  0.63283511  0.36923987  1
  C  C145  1  0.61907085  0.51120965  0.42542541  1
  C  C146  1  0.97025972  0.51100690  0.41926512  1
  H  H147  1  0.50432174  0.59637195  0.49660255  1
  C  C148  1  0.59415460  0.92721767  0.69144376  1
  C  C149  1  0.84898987  0.77813768  0.62370491  1
  H  H150  1  0.77056570  0.80206698  0.61798376  1
  C  C151  1  0.83631355  0.59335595  0.73334042  1
  C  C152  1  0.98657882  0.65742967  0.68122262  1
  H  H153  1  0.59535832  0.93454425  0.63591724  1
  C  C154  1  0.88551214  0.68233814  0.67763844  1
  C  C155  1  0.91138231  0.83166226  0.57283855  1
  C  C156  1  0.73499929  0.57733896  0.72997192  1
  H  H157  1  0.70088083  0.60984197  0.68362885  1
  C  C158  1  0.51763959  0.85064172  0.72316745  1
  C  C159  1  0.86815717  0.93753429  0.51472559  1
  O  O160  1  0.78288317  0.94993482  0.50494538  1
  C  C161  1  0.56637744  0.57134734  0.92055827  1
  H  H162  1  0.75838150  0.69120269  0.95544059  1
  H  H163  1  0.61649834  0.64141013  0.89050109  1
  C  C164  1  0.56979774  0.92820657  0.83728743  1
  C  C165  1  0.55560351  0.92584150  0.91141165  1
  O  O166  1  0.61220119  0.97988927  0.94876663  1
  H  H167  1  0.89414236  0.91915935  0.98073924  1
  C  C168  1  0.50367638  0.85176731  0.79211615  1
  C  C169  1  0.99382576  0.52512311  0.81279750  1
  C  C170  1  0.89459030  0.52912397  0.79073199  1
  O  O171  1  0.96582378  0.58943398  0.99688316  1
