# generated using pymatgen
data_Zn7H48(C12O5)6
_symmetry_space_group_name_H-M   'P 1'
_cell_length_a   19.74023729
_cell_length_b   19.20140900
_cell_length_c   21.75494553
_cell_angle_alpha   90.00000000
_cell_angle_beta   90.00000000
_cell_angle_gamma   90.00000000
_symmetry_Int_Tables_number   1
_chemical_formula_structural   Zn7H48(C12O5)6
_chemical_formula_sum   'Zn28 H192 C288 O120'
_cell_volume   8246.00260085
_cell_formula_units_Z   4
loop_
 _symmetry_equiv_pos_site_id
 _symmetry_equiv_pos_as_xyz
  1  'x, y, z'
loop_
 _atom_site_type_symbol
 _atom_site_label
 _atom_site_symmetry_multiplicity
 _atom_site_fract_x
 _atom_site_fract_y
 _atom_site_fract_z
 _atom_site_occupancy
  H  H0  1  0.10216654  0.33792754  0.24694711  1
  H  H1  1  0.17788309  0.15089476  0.06827591  1
  C  C2  1  0.19932177  0.06053972  0.24688389  1
  C  C3  1  0.05495735  0.33200016  0.06664478  1
  C  C4  1  0.00610090  0.04212196  0.00939919  1
  C  C5  1  0.08500134  0.45943007  0.42596214  1
  O  O6  1  0.04570447  0.36712015  0.33269551  1
  H  H7  1  0.16029515  0.17782883  0.14552061  1
  H  H8  1  0.07863428  0.38379237  0.08078209  1
  C  C9  1  0.03805063  0.27433707  0.10913479  1
  H  H10  1  0.01419122  0.10914722  0.28935760  1
  C  C11  1  0.03922574  0.34367809  0.38620480  1
  C  C12  1  0.18793837  0.46426256  0.07070056  1
  C  C13  1  0.07133598  0.03267143  0.03516256  1
  C  C14  1  0.05934440  0.39481445  0.43935370  1
  C  C15  1  0.05553304  0.27808598  0.17452693  1
  C  C16  1  0.21042994  0.26809165  0.20788736  1
  H  H17  1  0.08240498  0.04759303  0.08282098  1
  C  C18  1  0.22358193  0.40433403  0.08732880  1
  C  C19  1  0.18475081  0.19396051  0.10172669  1
  H  H20  1  0.07674373  0.39408839  0.18116267  1
  H  H21  1  0.06430753  0.01709586  0.46573504  1
  O  O22  1  0.15598775  0.49525000  0.17313111  1
  H  H23  1  0.15738229  0.25071217  0.19752806  1
  C  C24  1  0.07643561  0.34017808  0.20155765  1
  H  H25  1  0.16062095  0.05955886  0.28744783  1
  H  H26  1  0.10242030  0.26522978  0.30329035  1
  O  O27  1  0.20840783  0.30729036  0.25014064  1
  C  C28  1  0.04515013  0.21521727  0.21637230  1
  C  C29  1  0.07618301  0.21769923  0.27854664  1
  O  O30  1  0.17200011  0.09642435  0.20914056  1
  H  H31  1  0.15673629  0.23893048  0.08064160  1
  C  C32  1  0.17276771  0.47996620  0.00937996  1
  H  H33  1  0.15002731  0.21499370  0.40890032  1
  O  O34  1  0.00494253  0.29047324  0.39588094  1
  O  O35  1  0.16720418  0.24025721  0.44466251  1
  O  O36  1  0.07996434  0.17984926  0.32409545  1
  H  H37  1  0.23154042  0.38821738  0.13741921  1
  H  H38  1  0.24708078  0.16949985  0.49421653  1
  H  H39  1  0.09490397  0.47277510  0.37692357  1
  C  C40  1  0.00368181  0.21246829  0.09304583  1
  H  H41  1  0.02220937  0.04360871  0.23506068  1
  C  C42  1  0.01378187  0.15425035  0.19394086  1
  O  O43  1  0.19504971  0.00266214  0.08409092  1
  H  H44  1  0.01054831  0.15450804  0.00572059  1
  O  O45  1  0.04770042  0.33429710  0.01247635  1
  C  C46  1  0.12399891  0.00480190  0.00122486  1
  H  H47  1  0.13409342  0.27489557  0.44963327  1
  C  C48  1  0.19223528  0.46833419  0.89903589  1
  C  C49  1  0.02279505  0.03303089  0.58527521  1
  C  C50  1  0.24257670  0.27287213  0.65412333  1
  H  H51  1  0.15633663  0.20123149  0.66364944  1
  Zn  Zn52  1  0.07459523  0.00796654  0.71483795  1
  O  O53  1  0.05328086  0.08661794  0.56894670  1
  O  O54  1  0.04645147  0.45612691  0.78738722  1
  C  C55  1  0.06424116  0.42437804  0.54691980  1
  Zn  Zn56  1  0.04216039  0.39010518  0.63141152  1
  O  O57  1  0.21456513  0.43167945  0.84841645  1
  C  C58  1  0.21006274  0.08362932  0.69369757  1
  C  C59  1  0.21140039  0.20929486  0.66798037  1
  O  O60  1  0.24290458  0.03546044  0.71397883  1
  O  O61  1  0.13982834  0.32293443  0.63019236  1
  O  O62  1  0.14611115  0.08357432  0.68735720  1
  C  C63  1  0.20232842  0.33460279  0.63511304  1
  C  C64  1  0.20429952  0.44174063  0.96172134  1
  O  O65  1  0.01009046  0.01159326  0.64033395  1
  H  H66  1  0.02152889  0.32529911  0.51182211  1
  O  O67  1  0.00434013  0.38219844  0.72187125  1
  H  H68  1  0.22933152  0.38628062  0.87336240  1
  C  C69  1  0.04848801  0.00234131  0.84205483  1
  O  O70  1  0.22292603  0.39565442  0.62853245  1
  O  O71  1  0.22971858  0.01683262  0.53007740  1
  H  H72  1  0.21943640  0.12814010  0.56118428  1
  C  C73  1  0.00414858  0.02932759  0.94558989  1
  C  C74  1  0.09680080  0.48965794  0.53769680  1
  C  C75  1  0.05986556  0.00765179  0.91158733  1
  H  H76  1  0.24694081  0.15474130  0.99747655  1
  C  C77  1  0.04599953  0.37568603  0.50114578  1
  H  H78  1  0.13972827  0.81793665  0.24188747  1
  Zn  Zn79  1  0.00789822  0.85484623  0.31950838  1
  H  H80  1  0.16478376  0.92854239  0.28807375  1
  C  C81  1  0.00923075  0.94901380  0.36756691  1
  Zn  Zn82  1  0.10649934  0.67528996  0.34573084  1
  C  C83  1  0.10229913  0.81495925  0.43700046  1
  C  C84  1  0.08939411  0.81348780  0.26867556  1
  C  C85  1  0.03027117  0.75024477  0.35751287  1
  C  C86  1  0.16605070  0.90948736  0.48637248  1
  O  O87  1  0.14122197  0.57957260  0.39102043  1
  H  H88  1  0.21881744  0.88711841  0.34979242  1
  C  C89  1  0.09188819  0.78934915  0.33163853  1
  H  H90  1  0.18179761  0.92515509  0.44054790  1
  H  H91  1  0.13319606  0.60067079  0.14020935  1
  O  O92  1  0.13158158  0.82832134  0.38482067  1
  C  C93  1  0.13629086  0.57154638  0.44950481  1
  O  O94  1  0.05307193  0.77443759  0.43644470  1
  O  O95  1  0.21132441  0.83306073  0.19221851  1
  O  O96  1  0.15660959  0.63580379  0.24024703  1
  H  H97  1  0.14015858  0.52514170  0.00203158  1
  O  O98  1  0.14006663  0.57631173  0.09792959  1
  C  C99  1  0.21281614  0.92656601  0.31518822  1
  C  C100  1  0.02047432  0.98289380  0.47730269  1
  C  C101  1  0.10536917  0.50513640  0.47333229  1
  H  H102  1  0.14850800  0.58980421  0.22363457  1
  O  O103  1  0.15212695  0.62148498  0.48529940  1
  Zn  Zn104  1  0.03758195  0.77846547  0.13719427  1
  C  C105  1  0.01931783  0.81103802  0.23074875  1
  H  H106  1  0.03423416  0.68855484  0.02583439  1
  O  O107  1  0.02840238  0.99854019  0.34428750  1
  C  C108  1  0.12269015  0.85117789  0.49345140  1
  H  H109  1  0.20086762  0.64666796  0.22152369  1
  O  O110  1  0.00034784  0.92626974  0.17107574  1
  C  C111  1  0.01303687  0.65523435  0.06470855  1
  C  C112  1  0.01048121  0.67761976  0.12702265  1
  C  C113  1  0.00751026  0.86981913  0.18656825  1
  Zn  Zn114  1  0.23289935  0.67866538  0.47164414  1
  C  C115  1  0.15764005  0.51019390  0.11904909  1
  H  H116  1  0.24760008  0.77364803  0.28975062  1
  C  C117  1  0.19574480  0.99294961  0.02887205  1
  C  C118  1  0.09304733  0.76594490  0.93176449  1
  O  O119  1  0.18723354  0.70547868  0.97150397  1
  O  O120  1  0.02171529  0.61054707  0.80305801  1
  H  H121  1  0.06458585  0.87347682  0.96734187  1
  C  C122  1  0.09866965  0.82983969  0.55091914  1
  C  C123  1  0.18336959  0.95067862  0.53634627  1
  Zn  Zn124  1  0.03146605  0.73732966  0.73944989  1
  O  O125  1  0.05097795  0.80327993  0.66310973  1
  C  C126  1  0.15634617  0.93745373  0.59269866  1
  C  C127  1  0.07563215  0.71546039  0.88510992  1
  O  O128  1  0.20241611  0.55532127  0.74077579  1
  C  C129  1  0.01648365  0.73473850  0.83844328  1
  C  C130  1  0.09300581  0.85350312  0.66101841  1
  C  C131  1  0.04771944  0.82618202  0.94247819  1
  O  O132  1  0.10180490  0.89209923  0.70488309  1
  Zn  Zn133  1  0.05678925  0.52861212  0.86632734  1
  C  C134  1  0.11823407  0.87509859  0.59802277  1
  C  C135  1  0.15696215  0.76005832  0.96902408  1
  H  H136  1  0.06139960  0.78580399  0.55775873  1
  O  O137  1  0.16161724  0.52379397  0.88816213  1
  H  H138  1  0.16850103  0.97151275  0.91025210  1
  H  H139  1  0.16862712  0.96922906  0.63209763  1
  H  H140  1  0.11246059  0.67478647  0.87297798  1
  O  O141  1  0.00898231  0.58236382  0.94925398  1
  H  H142  1  0.11478051  0.52674665  0.57315154  1
  O  O143  1  0.10320560  0.99290271  0.80936970  1
  O  O144  1  0.22777786  0.76072435  0.53360000  1
  O  O145  1  0.24626572  0.97390385  0.99694768  1
  C  C146  1  0.12205672  0.99258431  0.93911027  1
  O  O147  1  0.17612604  0.81713202  0.99459335  1
  C  C148  1  0.36697348  0.06764840  0.42910912  1
  H  H149  1  0.48521902  0.48268413  0.14883900  1
  C  C150  1  0.26598545  0.02574565  0.25456262  1
  H  H151  1  0.33997961  0.04101429  0.38983268  1
  H  H152  1  0.28245704  0.31908467  0.04993176  1
  H  H153  1  0.28128680  0.07238513  0.12960672  1
  C  C154  1  0.33020054  0.28798264  0.17526608  1
  C  C155  1  0.30035475  0.16896956  0.00855267  1
  C  C156  1  0.37619973  0.23295301  0.07892905  1
  C  C157  1  0.32379862  0.04321028  0.21839676  1
  C  C158  1  0.38649433  0.27515639  0.13227359  1
  C  C159  1  0.26811276  0.25604354  0.16425550  1
  C  C160  1  0.35430485  0.16298221  0.32967218  1
  C  C161  1  0.43068716  0.09900247  0.40341328  1
  C  C162  1  0.49430587  0.49501940  0.34735977  1
  O  O163  1  0.30126919  0.15683680  0.35366062  1
  O  O164  1  0.37177165  0.46311294  0.29258072  1
  H  H165  1  0.43350040  0.19024174  0.23176322  1
  C  C166  1  0.38912009  0.02519421  0.24367292  1
  O  O167  1  0.41075948  0.36311250  0.25031196  1
  H  H168  1  0.34205062  0.18634642  0.28312043  1
  C  C169  1  0.33936657  0.34309657  0.22287254  1
  H  H170  1  0.31059541  0.32827057  0.26638076  1
  C  C171  1  0.31142526  0.20429962  0.06833266  1
  H  H172  1  0.31730415  0.39411109  0.20867488  1
  C  C173  1  0.41852383  0.42246449  0.28409617  1
  C  C174  1  0.45375874  0.30309518  0.13640017  1
  C  C175  1  0.25804382  0.21548603  0.11235966  1
  H  H176  1  0.37118350  0.09638545  0.13963583  1
  C  C177  1  0.42468046  0.14605440  0.35388718  1
  H  H178  1  0.38296763  0.03362996  0.46700646  1
  C  C179  1  0.31945535  0.09170066  0.16258649  1
  C  C180  1  0.43008713  0.47606274  0.13092564  1
  H  H181  1  0.32512430  0.10384162  0.44692830  1
  C  C182  1  0.45444936  0.04330618  0.21282710  1
  C  C183  1  0.47032800  0.21402926  0.26232156  1
  C  C184  1  0.43577684  0.21848120  0.03647816  1
  H  H185  1  0.30211742  0.14428293  0.17346801  1
  C  C186  1  0.48102286  0.16964890  0.32039062  1
  O  O187  1  0.47039218  0.05959369  0.16246620  1
  H  H188  1  0.46241319  0.17051306  0.04980164  1
  C  C189  1  0.25794264  0.36701337  0.03958609  1
  H  H190  1  0.39918970  0.48177868  0.17313583  1
  C  C191  1  0.49453926  0.08395974  0.42963962  1
  H  H192  1  0.44434082  0.26583792  0.26811988  1
  H  H193  1  0.42262396  0.41957626  0.11336403  1
  C  C194  1  0.48613706  0.43372642  0.31485116  1
  H  H195  1  0.47971037  0.25839798  0.03664393  1
  C  C196  1  0.42608860  0.46594019  0.65652111  1
  C  C197  1  0.32944799  0.13335274  0.55655716  1
  C  C198  1  0.44753826  0.08619342  0.61562076  1
  C  C199  1  0.31984028  0.15711035  0.68919174  1
  H  H200  1  0.34861672  0.11145086  0.70609815  1
  Zn  Zn201  1  0.32741252  0.47163693  0.61324092  1
  H  H202  1  0.46597100  0.03147789  0.52417723  1
  C  C203  1  0.38508334  0.25302619  0.53487889  1
  C  C204  1  0.33445438  0.06289003  0.57914612  1
  C  C205  1  0.39121417  0.04020475  0.61571571  1
  O  O206  1  0.38731639  0.35450337  0.91705114  1
  C  C207  1  0.49009053  0.40532733  0.87998297  1
  H  H208  1  0.25408804  0.21578485  0.56583198  1
  H  H209  1  0.49844685  0.48365336  0.80656077  1
  H  H210  1  0.33761613  0.32546301  0.64494087  1
  H  H211  1  0.28169055  0.36066123  0.94506148  1
  H  H212  1  0.40862857  0.22525112  0.67129060  1
  C  C213  1  0.38406336  0.18138030  0.55758216  1
  C  C214  1  0.41712940  0.39804966  0.88736960  1
  H  H215  1  0.33478911  0.42742397  0.85250546  1
  C  C216  1  0.44287720  0.15424168  0.58717357  1
  C  C217  1  0.35218411  0.22201140  0.67671110  1
  C  C218  1  0.28261019  0.01378970  0.56298423  1
  C  C219  1  0.31291494  0.27659452  0.65607260  1
  C  C220  1  0.26004170  0.16262998  0.54343281  1
  O  O221  1  0.46177982  0.41154611  0.66044281  1
  O  O222  1  0.42394854  0.30059509  0.52748820  1
  O  O223  1  0.37891208  0.44671013  0.85105175  1
  H  H224  1  0.33792965  0.27606403  0.50915790  1
  H  H225  1  0.49391894  0.39220921  0.56157421  1
  O  O226  1  0.33074017  0.16950247  0.95979618  1
  H  H227  1  0.37210916  0.45481892  0.74917344  1
  C  C228  1  0.37121948  0.48217217  0.70382016  1
  C  C229  1  0.25045159  0.15118211  0.68245725  1
  C  C230  1  0.25213961  0.38789508  0.97842824  1
  H  H231  1  0.41902028  0.21040443  0.98683767  1
  H  H232  1  0.42237725  0.44961266  0.98575489  1
  C  C233  1  0.46423564  0.48847536  0.98778108  1
  C  C234  1  0.30089839  0.78812513  0.28202466  1
  H  H235  1  0.29409669  0.84519345  0.47549457  1
  H  H236  1  0.45419515  0.53367314  0.35257710  1
  C  C237  1  0.39125471  0.98232385  0.29935219  1
  C  C238  1  0.44676142  0.81654767  0.26125611  1
  H  H239  1  0.29479889  0.91753853  0.41975664  1
  Zn  Zn240  1  0.27307836  0.86142837  0.00674898  1
  C  C241  1  0.39226013  0.83910540  0.22320740  1
  H  H242  1  0.45484589  0.74814232  0.34641279  1
  H  H243  1  0.40268425  0.69796765  0.19324261  1
  C  C244  1  0.26678906  0.96881775  0.30201821  1
  O  O245  1  0.29630764  0.64657710  0.17816953  1
  H  H246  1  0.43619966  0.91272654  0.03395235  1
  O  O247  1  0.38146121  0.70210457  0.41108100  1
  C  C248  1  0.35581528  0.76518383  0.32056714  1
  C  C249  1  0.42305705  0.77540569  0.31250702  1
  C  C250  1  0.39828541  0.59908558  0.11271433  1
  H  H251  1  0.39955948  0.67264492  0.47048686  1
  H  H252  1  0.40512756  0.86924430  0.18447903  1
  O  O253  1  0.40722728  0.91731824  0.43716981  1
  H  H254  1  0.47757801  0.91287597  0.30312387  1
  O  O255  1  0.29228357  0.85049746  0.12479240  1
  C  C256  1  0.32462287  0.82131946  0.23084927  1
  H  H257  1  0.35289346  0.85985540  0.38052050  1
  C  C258  1  0.27122707  0.84155467  0.17771318  1
  C  C259  1  0.34182195  0.91553474  0.38962649  1
  C  C260  1  0.39981150  0.87966625  0.48747516  1
  C  C261  1  0.46749923  0.53474067  0.03383998  1
  C  C262  1  0.33573878  0.72077488  0.37543819  1
  C  C263  1  0.46312049  0.96537920  0.32306848  1
  Zn  Zn264  1  0.31439877  0.54585163  0.06823130  1
  C  C265  1  0.33121322  0.61792696  0.14245673  1
  C  C266  1  0.33335888  0.95572361  0.33170899  1
  O  O267  1  0.27511549  0.70990338  0.38565360  1
  C  C268  1  0.41688993  0.53453198  0.08408674  1
  H  H269  1  0.49226941  0.73227398  0.18470310  1
  C  C270  1  0.45148271  0.69641557  0.16749026  1
  C  C271  1  0.46279319  0.64654073  0.12382649  1
  H  H272  1  0.46701285  0.96234577  0.37353870  1
  C  C273  1  0.33834646  0.80955326  0.55987323  1
  H  H274  1  0.31377809  0.77696788  0.90706265  1
  C  C275  1  0.45075467  0.87477229  0.53300309  1
  H  H276  1  0.38240557  0.76689977  0.64205418  1
  O  O277  1  0.46787219  0.70180055  0.81628762  1
  H  H278  1  0.37069312  0.92867370  0.61359704  1
  C  C279  1  0.37464316  0.84392197  0.97355221  1
  H  H280  1  0.28550492  0.95517484  0.57472251  1
  O  O281  1  0.48884712  0.79591977  0.68222583  1
  C  C282  1  0.36436240  0.79829585  0.92377522  1
  C  C283  1  0.37327889  0.56891339  0.59301000  1
  C  C284  1  0.32092549  0.58229952  0.63965958  1
  C  C285  1  0.43023297  0.52056105  0.60560892  1
  C  C286  1  0.48856307  0.80383104  0.91429319  1
  C  C287  1  0.42618968  0.77617750  0.89419475  1
  C  C288  1  0.38916229  0.80228126  0.60275701  1
  Zn  Zn289  1  0.32728824  0.61487558  0.77853435  1
  C  C290  1  0.32191434  0.54228268  0.70147351  1
  C  C291  1  0.27467968  0.76660284  0.57461604  1
  O  O292  1  0.35765239  0.70616470  0.83000455  1
  C  C293  1  0.41576642  0.72554581  0.84317165  1
  O  O294  1  0.26910871  0.73889902  0.62404737  1
  H  H295  1  0.36230046  0.96851083  0.69035477  1
  C  C296  1  0.38870759  0.96784760  0.64539945  1
  C  C297  1  0.33950505  0.84497405  0.50403793  1
  H  H298  1  0.47618059  0.52831813  0.57418485  1
  O  O299  1  0.41494750  0.65186674  0.52033432  1
  H  H300  1  0.28483872  0.62536568  0.63409258  1
  C  C301  1  0.36524839  0.61097197  0.53722009  1
  H  H302  1  0.44246696  0.95184221  0.66146152  1
  C  C303  1  0.44912530  0.83682825  0.58601547  1
  C  C304  1  0.49344441  0.84991656  0.96242314  1
  C  C305  1  0.43478638  0.87521916  0.99421256  1
  H  H306  1  0.49800404  0.90267411  0.52037481  1
  C  C307  1  0.25997873  0.54808204  0.74089643  1
  O  O308  1  0.31264852  0.60106595  0.51068359  1
  H  H309  1  0.68865180  0.00321598  0.26564332  1
  C  C310  1  0.72399688  0.02485349  0.30097457  1
  H  H311  1  0.62788880  0.09367564  0.46844345  1
  C  C312  1  0.67944219  0.19692577  0.21285597  1
  H  H313  1  0.60901275  0.23305325  0.30188418  1
  H  H314  1  0.66626686  0.09303188  0.39064956  1
  C  C315  1  0.70793337  0.18800107  0.14231149  1
  O  O316  1  0.71062209  0.28134272  0.46216242  1
  O  O317  1  0.51067545  0.31776293  0.13323759  1
  H  H318  1  0.62077694  0.01853145  0.41266737  1
  C  C319  1  0.55294337  0.10731262  0.39405225  1
  C  C320  1  0.60946712  0.17556783  0.30538303  1
  O  O321  1  0.62484032  0.16949660  0.23014867  1
  C  C322  1  0.50694414  0.04814896  0.48882772  1
  H  H323  1  0.66124802  0.15665864  0.32427605  1
  H  H324  1  0.68274333  0.14700621  0.11535439  1
  O  O325  1  0.64621929  0.33520533  0.32307939  1
  H  H326  1  0.71443052  0.26892775  0.28955345  1
  H  H327  1  0.52040173  0.22244382  0.24135832  1
  H  H328  1  0.52350837  0.34210008  0.27563522  1
  O  O329  1  0.72027558  0.01335632  0.17196610  1
  H  H330  1  0.66532578  0.45411656  0.38801467  1
  C  C331  1  0.54702656  0.14686970  0.33969025  1
  C  C332  1  0.61387636  0.44948060  0.36887766  1
  C  C333  1  0.71282720  0.43634506  0.04194775  1
  H  H334  1  0.68156076  0.34291936  0.35668451  1
  O  O335  1  0.60744996  0.13280199  0.02487563  1
  O  O336  1  0.69320303  0.40564604  0.08881297  1
  C  C337  1  0.53670290  0.38558608  0.30735420  1
  C  C338  1  0.61933960  0.07712051  0.41664344  1
  C  C339  1  0.60210184  0.38912387  0.33271663  1
  H  H340  1  0.55883000  0.32628924  0.47569734  1
  C  C341  1  0.73626615  0.23358569  0.25324642  1
  Zn  Zn342  1  0.73082957  0.30290018  0.12318834  1
  H  H343  1  0.50845448  0.03777636  0.23781042  1
  H  H344  1  0.50297633  0.00161304  0.31041483  1
  C  C345  1  0.73253922  0.00041437  0.36111700  1
  O  O346  1  0.70414990  0.47030862  0.49539042  1
  H  H347  1  0.64614073  0.36363870  0.47292418  1
  H  H348  1  0.59036597  0.22141164  0.76024439  1
  C  C349  1  0.59721043  0.35547060  0.50062185  1
  H  H350  1  0.54198732  0.01895762  0.60808096  1
  C  C351  1  0.68091529  0.23926859  0.62494444  1
  C  C352  1  0.66553752  0.11856510  0.80777469  1
  H  H353  1  0.74157623  0.20881337  0.51325234  1
  C  C354  1  0.52977089  0.35654175  0.91503350  1
  H  H355  1  0.58198262  0.18005147  0.86091887  1
  C  C356  1  0.66480365  0.27278933  0.56777735  1
  H  H357  1  0.55599306  0.17358163  0.58220817  1
  Zn  Zn358  1  0.67664053  0.30249552  0.96153560  1
  C  C359  1  0.51975723  0.39841505  0.60628580  1
  C  C360  1  0.70041815  0.46815675  0.55445529  1
  C  C361  1  0.70879447  0.09194926  0.94057142  1
  Zn  Zn362  1  0.74357795  0.14677531  0.86382370  1
  C  C363  1  0.64257400  0.21614555  0.73785981  1
  C  C364  1  0.65784501  0.14716635  0.92713104  1
  O  O365  1  0.67196330  0.14333893  0.75226038  1
  H  H366  1  0.55269922  0.09644434  0.65524024  1
  C  C367  1  0.59144582  0.31163741  0.67185973  1
  C  C368  1  0.63904852  0.25450556  0.67734116  1
  O  O369  1  0.71601846  0.40944298  0.99023625  1
  C  C370  1  0.50511585  0.20216470  0.58574793  1
  C  C371  1  0.59956721  0.36357597  0.91282142  1
  C  C372  1  0.73439031  0.04285268  0.88874531  1
  O  O373  1  0.58973275  0.23240311  0.98156538  1
  C  C374  1  0.51583674  0.05774526  0.63885298  1
  C  C375  1  0.63657766  0.41337969  0.87964087  1
  C  C376  1  0.63638998  0.16037430  0.86627131  1
  C  C377  1  0.61005255  0.31977021  0.56265965  1
  H  H378  1  0.67761679  0.24519233  0.76564019  1
  H  H379  1  0.55168769  0.40334506  0.72251280  1
  O  O380  1  0.55705927  0.02436847  0.51250214  1
  H  H381  1  0.69365065  0.41865398  0.88081687  1
  C  C382  1  0.61166055  0.16951454  0.98022192  1
  C  C383  1  0.69011704  0.04324830  0.83165150  1
  C  C384  1  0.73870693  0.18551335  0.62553545  1
  H  H385  1  0.51095376  0.23295397  0.62713591  1
  H  H386  1  0.54388272  0.45265454  0.60640038  1
  H  H387  1  0.72016759  0.47728211  0.68269583  1
  C  C388  1  0.57398054  0.34345909  0.61587688  1
  H  H389  1  0.64354375  0.02852422  0.62932779  1
  C  C390  1  0.56262223  0.34686661  0.72950130  1
  C  C391  1  0.70308616  0.25412496  0.51124277  1
  H  H392  1  0.70248628  0.00530664  0.79615130  1
  O  O393  1  0.65388185  0.49690910  0.58036353  1
  C  C394  1  0.59479564  0.46039717  0.84512200  1
  H  H395  1  0.59700403  0.33608170  0.76970840  1
  H  H396  1  0.73656826  0.14922003  0.58639281  1
  H  H397  1  0.51016406  0.32996222  0.74435140  1
  H  H398  1  0.50059068  0.24190200  0.54580248  1
  H  H399  1  0.73707682  0.09033433  0.98538738  1
  H  H400  1  0.50798478  0.31485735  0.94657367  1
  O  O401  1  0.74318115  0.30222426  0.87989855  1
  H  H402  1  0.73474683  0.15589925  0.66996028  1
  H  H403  1  0.50162921  0.48619035  0.95300000  1
  C  C404  1  0.52398211  0.45659680  0.84312795  1
  H  H405  1  0.57568966  0.40792389  0.50771167  1
  C  C406  1  0.72711787  0.67217287  0.19694296  1
  H  H407  1  0.67728942  0.98359193  0.05469537  1
  H  H408  1  0.52661422  0.59575293  0.23360961  1
  Zn  Zn409  1  0.65280026  0.55003873  0.44952449  1
  C  C410  1  0.72088446  0.68799399  0.40469743  1
  O  O411  1  0.71603804  0.51337277  0.24861976  1
  O  O412  1  0.67888369  0.71280508  0.37007201  1
  H  H413  1  0.68961023  0.63250663  0.30669505  1
  C  C414  1  0.66403367  0.64000570  0.21836545  1
  C  C415  1  0.56308229  0.57534316  0.40419025  1
  C  C416  1  0.67194317  0.79067061  0.21420072  1
  H  H417  1  0.54007308  0.75520207  0.31074820  1
  C  C418  1  0.52847280  0.58092015  0.04499839  1
  H  H419  1  0.54461681  0.61827128  0.31234578  1
  C  C420  1  0.59074184  0.68138250  0.09814862  1
  C  C421  1  0.52594964  0.63685600  0.08636375  1
  C  C422  1  0.54405290  0.64085988  0.26552639  1
  C  C423  1  0.60947088  0.67894421  0.24353740  1
  H  H424  1  0.58906119  0.71265015  0.14149359  1
  O  O425  1  0.50816673  0.83059403  0.24571525  1
  C  C426  1  0.72535734  0.59684998  0.32854789  1
  H  H427  1  0.66190191  0.53843056  0.17255428  1
  H  H428  1  0.59060262  0.83600372  0.31129503  1
  O  O429  1  0.66062906  0.90120147  0.34278312  1
  H  H430  1  0.63335098  0.64389791  0.10141944  1
  C  C431  1  0.56770226  0.79429323  0.28263803  1
  C  C432  1  0.70318222  0.93021916  0.37511005  1
  H  H433  1  0.63670732  0.89630178  0.19798134  1
  H  H434  1  0.70561321  0.89508357  0.25133866  1
  C  C435  1  0.66289800  0.56145306  0.21926298  1
  H  H436  1  0.60408221  0.71981749  0.06179321  1
  H  H437  1  0.62194063  0.53995704  0.24796171  1
  H  H438  1  0.50081750  0.67750430  0.26278586  1
  C  C439  1  0.74092293  0.51035342  0.04478821  1
  H  H440  1  0.62856595  0.61258872  0.01530998  1
  C  C441  1  0.72530772  0.74811203  0.19131551  1
  C  C442  1  0.61903901  0.75357953  0.24511581  1
  O  O443  1  0.56670677  0.91171271  0.03296027  1
  C  C444  1  0.72936663  0.96414816  0.04535456  1
  C  C445  1  0.68463832  0.87074087  0.20684365  1
  H  H446  1  0.72191728  0.88475525  0.16860298  1
  C  C447  1  0.55939039  0.50354077  0.37651640  1
  O  O448  1  0.53408029  0.62956373  0.40907508  1
  O  O449  1  0.71919453  0.90575199  0.42933317  1
  C  C450  1  0.59798914  0.56239904  0.02039912  1
  C  C451  1  0.74339414  0.53189034  0.30084656  1
  H  H452  1  0.73926360  0.50092702  0.14250847  1
  O  O453  1  0.73860175  0.71956982  0.45385666  1
  C  C454  1  0.74666808  0.53817867  0.10398989  1
  H  H455  1  0.62390835  0.52630072  0.05373045  1
  H  H456  1  0.70017903  0.57036028  0.78738475  1
  O  O457  1  0.59391091  0.55368107  0.77416713  1
  O  O458  1  0.59859547  0.80268598  0.81750472  1
  C  C459  1  0.64604510  0.98810668  0.66929796  1
  Zn  Zn460  1  0.53748339  0.74472329  0.75972435  1
  C  C461  1  0.62500698  0.51811721  0.80842584  1
  C  C462  1  0.56207135  0.87777921  0.98645787  1
  O  O463  1  0.70148752  0.52980320  0.81268257  1
  C  C464  1  0.65773931  0.82399308  0.80108029  1
  O  O465  1  0.56606319  0.83507085  0.61983940  1
  C  C466  1  0.65928667  0.88590604  0.75646722  1
  O  O467  1  0.61214176  0.86347311  0.95207154  1
  C  C468  1  0.59707305  0.91741306  0.74428236  1
  C  C469  1  0.70748785  0.95914012  0.68308903  1
  C  C470  1  0.58578473  0.97149398  0.70152219  1
  H  H471  1  0.53617814  0.78678862  0.89281193  1
  H  H472  1  0.55237124  0.89745091  0.77153564  1
  C  C473  1  0.71736461  0.90703317  0.72646426  1
  C  C474  1  0.50757280  0.82537830  0.63188816  1
  O  O475  1  0.71034001  0.79662652  0.81307382  1
  H  H476  1  0.60080918  0.53550841  0.97556201  1
  O  O477  1  0.62103914  0.70101113  0.71004657  1
  H  H478  1  0.59815749  0.72940645  0.67710088  1
  Zn  Zn479  1  0.67563622  0.94378868  0.90638292  1
  C  C480  1  0.74515983  0.94107261  0.98602852  1
  H  H481  1  0.64250593  0.73477983  0.74210591  1
  O  O482  1  0.52381859  0.99914876  0.69544993  1
  C  C483  1  0.95865351  0.08931488  0.10674513  1
  O  O484  1  0.95311757  0.06822839  0.03840552  1
  O  O485  1  0.84905521  0.11949425  0.49282082  1
  C  C486  1  0.76078697  0.08489158  0.29347385  1
  C  C487  1  0.83575181  0.21511991  0.17719026  1
  C  C488  1  0.85256974  0.13607028  0.43736803  1
  C  C489  1  0.88614063  0.48028128  0.41011326  1
  C  C490  1  0.78064272  0.20569698  0.12540438  1
  O  O491  1  0.89037340  0.18295617  0.41983724  1
  C  C492  1  0.81020378  0.09278314  0.39447584  1
  H  H493  1  0.90221906  0.09329430  0.10926577  1
  Zn  Zn494  1  0.95406920  0.40274850  0.29325003  1
  C  C495  1  0.79902556  0.24542387  0.06498249  1
  C  C496  1  0.99189881  0.15512338  0.13119066  1
  H  H497  1  0.94495413  0.49817024  0.10014751  1
  C  C498  1  0.80457390  0.12093419  0.33336138  1
  H  H499  1  0.93938099  0.08335005  0.24455762  1
  O  O500  1  0.90371739  0.42136203  0.38455059  1
  O  O501  1  0.93831588  0.46889075  0.21426815  1
  C  C502  1  0.84143015  0.28752990  0.27926426  1
  H  H503  1  0.96840827  0.04559916  0.13789019  1
  O  O504  1  0.84553739  0.27988470  0.05267953  1
  O  O505  1  0.89125569  0.31704422  0.25368041  1
  H  H506  1  0.89050220  0.23309736  0.16744493  1
  Zn  Zn507  1  0.76673135  0.13828906  0.20945478  1
  O  O508  1  0.82878193  0.29529480  0.33465369  1
  Zn  Zn509  1  0.89841397  0.30616315  0.41280303  1
  H  H510  1  0.83096760  0.17092673  0.31963274  1
  C  C511  1  0.80763508  0.23588300  0.23798817  1
  H  H512  1  0.81198538  0.44516738  0.31450753  1
  C  C513  1  0.77581007  0.03116458  0.40489853  1
  C  C514  1  0.98067252  0.19946071  0.02664497  1
  C  C515  1  0.99464034  0.09517640  0.24095836  1
  C  C516  1  0.79272798  0.49545912  0.33456542  1
  H  H517  1  0.92383545  0.19252267  0.02796278  1
  H  H518  1  0.78205970  0.00853191  0.45079918  1
  C  C519  1  0.75910462  0.44164556  0.59339589  1
  C  C520  1  0.90385962  0.37042586  0.81749394  1
  C  C521  1  0.80972358  0.03759356  0.87495814  1
  C  C522  1  0.92842951  0.43636712  0.79171084  1
  H  H523  1  0.91272870  0.36413209  0.68799325  1
  H  H524  1  0.93965965  0.32274423  0.81124349  1
  Zn  Zn525  1  0.88699617  0.44348047  0.94553914  1
  O  O526  1  0.96364679  0.31474167  0.59351682  1
  C  C527  1  0.86821326  0.38823615  0.66271815  1
  C  C528  1  0.80686740  0.29802880  0.87208617  1
  H  H529  1  0.98807920  0.24866005  0.99884013  1
  C  C530  1  0.91203665  0.33293226  0.56542448  1
  Zn  Zn531  1  0.82266211  0.43449043  0.78887718  1
  H  H532  1  0.80717430  0.39999386  0.51141444  1
  H  H533  1  0.79124045  0.20539967  0.62336660  1
  C  C534  1  0.86334282  0.38067968  0.59788692  1
  O  O535  1  0.83770874  0.24445546  0.86138793  1
  C  C536  1  0.81738960  0.42650364  0.68878071  1
  C  C537  1  0.99590522  0.42873816  0.76391791  1
  C  C538  1  0.84446750  0.36777966  0.86577585  1
  C  C539  1  0.80745720  0.43216843  0.88634491  1
  C  C540  1  0.80971616  0.40443531  0.56300571  1
  O  O541  1  0.85842362  0.05030402  0.90240324  1
  O  O542  1  0.75108778  0.22789890  0.99650160  1
  H  H543  1  0.78158541  0.25144580  0.97012221  1
  H  H544  1  0.95197105  0.03392614  0.92411624  1
  O  O545  1  0.89978667  0.31186836  0.51137470  1
  O  O546  1  0.97160038  0.48748175  0.99694174  1
  C  C547  1  0.75914264  0.44928543  0.65778875  1
  C  C548  1  0.84201068  0.49609254  0.86766020  1
  O  O549  1  0.75610606  0.01973413  0.59926106  1
  O  O550  1  0.99496128  0.00390304  0.81662558  1
  C  C551  1  0.89195090  0.74678478  0.37059244  1
  H  H552  1  0.82721959  0.59724139  0.45720675  1
  C  C553  1  0.75506456  0.61954016  0.38265805  1
  O  O554  1  0.93189882  0.55917896  0.27550005  1
  Zn  Zn555  1  0.78360451  0.82025773  0.44759353  1
  H  H556  1  0.78998179  0.77605042  0.35920793  1
  C  C557  1  0.77075456  0.60546039  0.11138806  1
  H  H558  1  0.83177650  0.66266241  0.17819459  1
  C  C559  1  0.96687387  0.57590518  0.16874121  1
  Zn  Zn560  1  0.91156203  0.65695954  0.31713483  1
  O  O561  1  0.83921580  0.76244357  0.13960820  1
  O  O562  1  0.83361510  0.80665253  0.35169723  1
  H  H563  1  0.90860491  0.77548796  0.23547853  1
  C  C564  1  0.95503257  0.75163577  0.32880840  1
  O  O565  1  0.81890216  0.96903533  0.19408928  1
  C  C566  1  0.96427694  0.55113988  0.10839695  1
  C  C567  1  0.95583275  0.78170586  0.26276258  1
  C  C568  1  0.98990937  0.58514335  0.05845080  1
  O  O569  1  0.87482446  0.72814331  0.42153999  1
  H  H570  1  0.88756940  0.93229272  0.10824206  1
  C  C571  1  0.84676594  0.93208190  0.07188331  1
  C  C572  1  0.78466547  0.64659381  0.06096309  1
  C  C573  1  0.99001814  0.64249509  0.18220078  1
  H  H574  1  0.79384830  0.58343632  0.21178426  1
  C  C575  1  0.93511799  0.88941896  0.45096964  1
  H  H576  1  0.79943568  0.70104053  0.06865706  1
  O  O577  1  0.97327083  0.87656416  0.02764137  1
  C  C578  1  0.94523420  0.53212259  0.22288545  1
  C  C579  1  0.78703799  0.62797116  0.17922209  1
  C  C580  1  0.85635867  0.90637315  0.01252180  1
  H  H581  1  0.91788156  0.85167001  0.41616858  1
  C  C582  1  0.80417124  0.58222410  0.41401488  1
  C  C583  1  0.78505927  0.96192165  0.08774557  1
  H  H584  1  0.80028648  0.83902114  0.16776594  1
  C  C585  1  0.78755859  0.77973113  0.16486438  1
  C  C586  1  0.77657562  0.98717200  0.15457022  1
  H  H587  1  0.99186682  0.66271760  0.22777663  1
  Zn  Zn588  1  0.90775753  0.99440845  0.48551990  1
  C  C589  1  0.98379605  0.94108011  0.42920540  1
  O  O590  1  0.91847071  0.51255789  0.44660004  1
  C  C591  1  0.82519212  0.52037860  0.38571281  1
  C  C592  1  0.78197297  0.62218476  0.99943720  1
  C  C593  1  0.80450994  0.91223645  0.96588159  1
  C  C594  1  0.92431105  0.88320383  0.99762980  1
  H  H595  1  0.93108910  0.92930812  0.61114745  1
  H  H596  1  0.87241290  0.98427070  0.81949975  1
  H  H597  1  0.89729166  0.69928620  0.78943836  1
  C  C598  1  0.98722873  0.54972134  0.99603919  1
  O  O599  1  0.92705711  0.86253578  0.92842477  1
  H  H600  1  0.78973976  0.84877797  0.63510112  1
  H  H601  1  0.94723943  0.82447543  0.80774677  1
  H  H602  1  0.92863962  0.55098980  0.81208892  1
  O  O603  1  0.79973917  0.80126323  0.64501241  1
  O  O604  1  0.84446696  0.86766112  0.52275118  1
  O  O605  1  0.91416386  0.65159983  0.78982485  1
  O  O606  1  0.86564431  0.78549354  0.77108917  1
  C  C607  1  0.94590759  0.92969254  0.56239054  1
  C  C608  1  0.80244681  0.66689148  0.94865437  1
  H  H609  1  0.81024905  0.89282950  0.91799240  1
  H  H610  1  0.85721389  0.79771550  0.72854530  1
  H  H611  1  0.82052229  0.78887180  0.78708799  1
  O  O612  1  0.81973864  0.72522947  0.93997246  1
  H  H613  1  0.82746035  0.79383451  0.61017293  1
  Zn  Zn614  1  0.98767941  0.73217048  0.93852539  1
  H  H615  1  0.76477793  0.88143735  0.73285566  1
  Zn  Zn616  1  0.79157149  0.59565773  0.87653924  1
  C  C617  1  0.76925068  0.97906165  0.64222203  1
  C  C618  1  0.98053880  0.83512339  0.90584783  1
  C  C619  1  0.98538881  0.80524153  0.84249828  1
  H  H620  1  0.76576257  0.52001096  0.95096009  1
  C  C621  1  0.76003845  0.54904764  0.99427524  1
  O  O622  1  0.82517581  0.95994938  0.65484857  1
  C  C623  1  0.99172063  0.98362131  0.54151333  1
  C  C624  1  0.99126464  0.66596112  0.80707669  1
  O  O625  1  0.82433917  0.98830010  0.81553092  1
  C  C626  1  0.89980796  0.50208727  0.81932150  1
  C  C627  1  0.90060080  0.88829865  0.51595459  1
