# generated using pymatgen
data_ZnH12(C5N2)3
_symmetry_space_group_name_H-M   'P 1'
_cell_length_a   14.07591818
_cell_length_b   14.00590734
_cell_length_c   14.69993821
_cell_angle_alpha   90.00000000
_cell_angle_beta   90.00000000
_cell_angle_gamma   90.00000000
_symmetry_Int_Tables_number   1
_chemical_formula_structural   ZnH12(C5N2)3
_chemical_formula_sum   'Zn8 H96 C120 N48'
_cell_volume   2898.03410332
_cell_formula_units_Z   8
loop_
 _symmetry_equiv_pos_site_id
 _symmetry_equiv_pos_as_xyz
  1  'x, y, z'
loop_
 _atom_site_type_symbol
 _atom_site_label
 _atom_site_symmetry_multiplicity
 _atom_site_fract_x
 _atom_site_fract_y
 _atom_site_fract_z
 _atom_site_occupancy
  N  N0  1  0.48505619  0.07208488  0.32762829  1
  C  C1  1  0.20645712  0.04182395  0.49274290  1
  C  C2  1  0.18157793  0.11337608  0.15188482  1
  H  H3  1  0.22462980  0.16936919  0.12202638  1
  N  N4  1  0.14349193  0.12253364  0.23593029  1
  C  C5  1  0.45339551  0.06118718  0.41019921  1
  C  C6  1  0.10570252  0.03800149  0.25933813  1
  C  C7  1  0.21151683  0.22662254  0.36053283  1
  N  N8  1  0.16547431  0.02221176  0.12509338  1
  H  H9  1  0.25237063  0.16251582  0.37824481  1
  H  H10  1  0.18265274  0.10360247  0.45581824  1
  C  C11  1  0.15036660  0.21670472  0.28695199  1
  C  C12  1  0.33489870  0.02322025  0.31558417  1
  C  C13  1  0.29753985  0.00118673  0.47904141  1
  N  N14  1  0.35847796  0.02924002  0.40366500  1
  C  C15  1  0.41687982  0.05109536  0.26545031  1
  H  H16  1  0.42453409  0.06255795  0.19145206  1
  H  H17  1  0.26093155  0.00118249  0.29274566  1
  H  H18  1  0.07904434  0.02261690  0.32949056  1
  H  H19  1  0.49451010  0.19197279  0.11670729  1
  H  H20  1  0.49249628  0.06306356  0.47307896  1
  C  C21  1  0.43638805  0.16592870  0.92125424  1
  H  H22  1  0.24782354  0.16549114  0.95290770  1
  C  C23  1  0.22806346  0.16960671  0.87724861  1
  N  N24  1  0.14986203  0.15122377  0.83383468  1
  N  N25  1  0.30006956  0.18496041  0.81411217  1
  H  H26  1  0.10361576  0.14727408  0.69490596  1
  C  C27  1  0.45145328  0.16733620  0.74859808  1
  C  C28  1  0.40080344  0.18236615  0.83059622  1
  H  H29  1  0.40922099  0.17189774  0.68759159  1
  N  N30  1  0.05728137  0.04741307  0.56411927  1
  C  C31  1  0.04745291  0.14228625  0.53969351  1
  C  C32  1  0.16325206  0.16147719  0.74294601  1
  C  C33  1  0.25940972  0.18595171  0.72816626  1
  H  H34  1  0.38689212  0.18075688  0.97963966  1
  Zn  Zn35  1  0.01852734  0.09668665  0.88873947  1
  H  H36  1  0.30630793  0.20007159  0.66828009  1
  H  H37  1  0.10626419  0.18144682  0.50282473  1
  H  H38  1  0.32199664  0.19448532  0.52309937  1
  C  C39  1  0.33543960  0.36854426  0.08988139  1
  C  C40  1  0.03903180  0.30060366  0.03537810  1
  C  C41  1  0.10755672  0.38233929  0.30045749  1
  C  C42  1  0.21207486  0.31331701  0.41474209  1
  H  H43  1  0.05375122  0.29596787  0.19166199  1
  H  H44  1  0.14570140  0.45272372  0.43105445  1
  N  N45  1  0.06026948  0.46804940  0.26230928  1
  N  N46  1  0.38153654  0.36046301  0.17765212  1
  C  C47  1  0.35282606  0.35186859  0.26293744  1
  H  H48  1  0.01590968  0.41673139  0.13243787  1
  C  C49  1  0.14933310  0.38809363  0.38918676  1
  N  N50  1  0.28300901  0.33537890  0.48047154  1
  C  C51  1  0.23737426  0.35052803  0.07047416  1
  H  H52  1  0.19305942  0.33259616  0.12781740  1
  H  H53  1  0.27472948  0.34855075  0.27964939  1
  C  C54  1  0.43592722  0.34689392  0.31534573  1
  C  C55  1  0.10049936  0.29868423  0.25084432  1
  H  H56  1  0.00580846  0.33500367  0.41175736  1
  H  H57  1  0.44073767  0.34272084  0.39351290  1
  C  C58  1  0.38511473  0.41224981  0.01651502  1
  H  H59  1  0.45915223  0.42918401  0.02430569  1
  C  C60  1  0.01142898  0.47656066  0.18141126  1
  C  C61  1  0.48110817  0.35989370  0.17795990  1
  H  H62  1  0.07022345  0.25657200  0.09028126  1
  C  C63  1  0.04054282  0.39496815  0.91133908  1
  H  H64  1  0.32330831  0.44423656  0.73388521  1
  C  C65  1  0.40299563  0.32349148  0.57603059  1
  C  C66  1  0.25239387  0.38624435  0.90532806  1
  N  N67  1  0.38734214  0.41705601  0.55659467  1
  H  H68  1  0.07370854  0.43085014  0.85289798  1
  C  C69  1  0.38924398  0.47635655  0.76854036  1
  C  C70  1  0.34832726  0.41553440  0.92689166  1
  H  H71  1  0.15037198  0.48200980  0.66542188  1
  H  H72  1  0.22861510  0.37792546  0.83339668  1
  H  H73  1  0.45648269  0.29689974  0.62790454  1
  N  N74  1  0.40855304  0.46414526  0.86289738  1
  C  C75  1  0.19887979  0.35546330  0.98299204  1
  C  C76  1  0.33633842  0.27033643  0.52699174  1
  N  N77  1  0.09499357  0.35038383  0.97577739  1
  H  H78  1  0.00823967  0.43684612  0.57260503  1
  C  C79  1  0.31831620  0.42826013  0.50224160  1
  C  C80  1  0.00617608  0.61527157  0.24351844  1
  C  C81  1  0.27335032  0.56044213  0.12238905  1
  C  C82  1  0.19529469  0.72449717  0.25232946  1
  N  N83  1  0.33641253  0.61839927  0.07795022  1
  H  H84  1  0.15848601  0.67359758  0.20366838  1
  H  H85  1  0.09063449  0.57254127  0.36878984  1
  C  C86  1  0.43613198  0.61746162  0.09168154  1
  C  C87  1  0.47523672  0.59917976  0.18049734  1
  C  C88  1  0.18397223  0.57078059  0.08138737  1
  H  H89  1  0.43356397  0.56810511  0.23668606  1
  C  C90  1  0.05962244  0.55524975  0.30311352  1
  H  H91  1  0.46597451  0.59207344  0.37562335  1
  H  H92  1  0.11728818  0.53079123  0.09069340  1
  H  H93  1  0.32208300  0.70611573  0.21451617  1
  H  H94  1  0.29544779  0.51378088  0.17485035  1
  N  N95  1  0.28571876  0.74630735  0.26250058  1
  C  C96  1  0.49156894  0.64718935  0.01808840  1
  H  H97  1  0.29410740  0.50014969  0.47305975  1
  C  C98  1  0.28045298  0.67275098  0.01596103  1
  N  N99  1  0.19270098  0.64283752  0.01899977  1
  H  H100  1  0.45478981  0.64668266  0.95478821  1
  N  N101  1  0.08347252  0.63299935  0.82931862  1
  H  H102  1  0.25255982  0.54177560  0.63891729  1
  C  C103  1  0.22763629  0.70422087  0.62224152  1
  N  N104  1  0.37139289  0.63501387  0.59776689  1
  C  C105  1  0.27984146  0.61824083  0.62431351  1
  C  C106  1  0.14868165  0.56517545  0.80449726  1
  C  C107  1  0.11633666  0.52847429  0.71930807  1
  C  C108  1  0.37631680  0.72378819  0.57031029  1
  N  N109  1  0.03651104  0.57609206  0.69752972  1
  N  N110  1  0.46180464  0.52610259  0.73292534  1
  C  C111  1  0.01880839  0.64324142  0.76442890  1
  Zn  Zn112  1  0.09943721  0.70535918  0.93506326  1
  Zn  Zn113  1  0.47332741  0.53985807  0.59651821  1
  H  H114  1  0.21756637  0.55302193  0.83795875  1
  H  H115  1  0.30495502  0.73142496  0.97127325  1
  C  C116  1  0.49094455  0.50868782  0.88596386  1
  H  H117  1  0.15151696  0.71861761  0.63320240  1
  H  H118  1  0.09438496  0.89987521  0.18347406  1
  H  H119  1  0.37368245  0.82253358  0.35475898  1
  C  C120  1  0.00503197  0.86410648  0.35731025  1
  N  N121  1  0.14338011  0.77751109  0.31726814  1
  C  C122  1  0.04544048  0.77917467  0.32248140  1
  C  C123  1  0.21260129  0.82965841  0.36545690  1
  H  H124  1  0.18427290  0.88787177  0.40506119  1
  C  C125  1  0.30107811  0.80881728  0.33130369  1
  C  C126  1  0.11582707  0.97381907  0.18699401  1
  H  H127  1  0.18137445  0.99303998  0.06381077  1
  H  H128  1  0.02675405  0.88726012  0.42620439  1
  C  C129  1  0.04239124  0.91214223  0.92320078  1
  N  N130  1  0.28809615  0.76938774  0.58786359  1
  H  H131  1  0.10955718  0.86439618  0.62772797  1
  C  C132  1  0.07376276  0.96415030  0.85192653  1
  C  C133  1  0.16499392  0.90195761  0.58861244  1
  H  H134  1  0.11665105  0.94201084  0.79318074  1
  C  C135  1  0.26019629  0.86639449  0.57584451  1
  N  N136  1  0.03445320  0.82854751  0.96639797  1
  C  C137  1  0.14318315  0.99113238  0.54959368  1
  H  H138  1  0.40423746  0.89904902  0.52785196  1
  C  C139  1  0.33062040  0.92692741  0.53550350  1
  H  H140  1  0.44083995  0.75959245  0.53592281  1
  C  C141  1  0.55311446  0.14433793  0.10183073  1
  Zn  Zn142  1  0.61256726  0.11368454  0.29783575  1
  N  N143  1  0.61584464  0.10813381  0.15827305  1
  C  C144  1  0.61561371  0.23861301  0.46410055  1
  C  C145  1  0.88078796  0.04844080  0.39287863  1
  N  N146  1  0.57854594  0.11867854  0.01421611  1
  H  H147  1  0.72050732  0.22680200  0.09057292  1
  H  H148  1  0.76738838  0.15313130  0.44448094  1
  C  C149  1  0.79623012  0.09727297  0.39871117  1
  N  N150  1  0.74166695  0.06889482  0.32617839  1
  N  N151  1  0.62698017  0.22822226  0.37882190  1
  C  C152  1  0.68516530  0.06173831  0.11187457  1
  H  H153  1  0.74549009  0.02570612  0.14035238  1
  C  C154  1  0.66130331  0.06881204  0.01814428  1
  H  H155  1  0.93458577  0.04885352  0.44357494  1
  H  H156  1  0.86379460  0.23382305  0.31522988  1
  H  H157  1  0.64870018  0.09041354  0.49573445  1
  H  H158  1  0.65693359  0.09638581  0.85764835  1
  C  C159  1  0.54789934  0.13810498  0.75983367  1
  N  N160  1  0.59689350  0.10754572  0.68058452  1
  C  C161  1  0.58999724  0.17044969  0.61019251  1
  H  H162  1  0.83595780  0.22881345  0.68092847  1
  N  N163  1  0.87269873  0.11273610  0.82796585  1
  H  H164  1  0.69826487  0.03998037  0.95770957  1
  C  C165  1  0.58714052  0.12482747  0.84791934  1
  C  C166  1  0.82502191  0.20176365  0.83010868  1
  H  H167  1  0.79384395  0.18577616  0.97790858  1
  N  N168  1  0.91452452  0.09419694  0.60731916  1
  C  C169  1  0.80765024  0.04907430  0.79260422  1
  H  H170  1  0.75069320  0.08654834  0.75557395  1
  C  C171  1  0.53082403  0.13519061  0.92722251  1
  C  C172  1  0.62337872  0.15653666  0.52326307  1
  C  C173  1  0.95787639  0.16923170  0.56608915  1
  H  H174  1  0.92385905  0.23768133  0.56475585  1
  C  C175  1  0.78588557  0.22815551  0.91467680  1
  C  C176  1  0.97295380  0.01986617  0.60271735  1
  H  H177  1  0.56804718  0.24015501  0.63564494  1
  N  N178  1  0.51497487  0.35335891  0.26129192  1
  C  C179  1  0.70207671  0.45121113  0.03297597  1
  N  N180  1  0.69497235  0.36185438  0.15736114  1
  C  C181  1  0.79745938  0.44513141  0.38539927  1
  C  C182  1  0.86530438  0.30367904  0.34994918  1
  C  C183  1  0.68474030  0.45279824  0.12841352  1
  N  N184  1  0.95076989  0.32778608  0.01616560  1
  N  N185  1  0.78605519  0.36099709  0.34882343  1
  C  C186  1  0.93201441  0.35752440  0.39537700  1
  H  H187  1  0.53053361  0.35718676  0.12214064  1
  Zn  Zn188  1  0.66998390  0.32630287  0.28712550  1
  N  N189  1  0.89212536  0.44531378  0.41517383  1
  C  C190  1  0.71362399  0.30552270  0.08700656  1
  N  N191  1  0.71534028  0.36041414  0.00745722  1
  H  H192  1  0.62774735  0.31582630  0.48953552  1
  H  H193  1  0.89939093  0.29767014  0.05789628  1
  C  C194  1  0.75513982  0.41022863  0.59389942  1
  C  C195  1  0.75936388  0.34108355  0.75632329  1
  C  C196  1  0.94738165  0.37909731  0.93708357  1
  C  C197  1  0.74181525  0.31847516  0.91923242  1
  C  C198  1  0.62403987  0.41436778  0.68163611  1
  C  C199  1  0.72172502  0.37415108  0.84120235  1
  N  N200  1  0.71959293  0.38696555  0.67622393  1
  H  H201  1  0.57243502  0.39940500  0.73778808  1
  H  H202  1  0.83061297  0.39892735  0.57431116  1
  N  N203  1  0.60610934  0.46643455  0.61100090  1
  H  H204  1  0.68935305  0.44594402  0.84795051  1
  H  H205  1  0.87764341  0.39812585  0.90546216  1
  C  C206  1  0.68192103  0.46780116  0.55471222  1
  C  C207  1  0.81144951  0.25779717  0.74871628  1
  C  C208  1  0.88840147  0.61429923  0.44815571  1
  C  C209  1  0.92861813  0.52276261  0.46525713  1
  C  C210  1  0.58991094  0.67046310  0.03633341  1
  C  C211  1  0.56444394  0.64101504  0.19720703  1
  H  H212  1  0.85455278  0.62731951  0.38042157  1
  N  N213  1  0.59344481  0.64665642  0.29364719  1
  C  C214  1  0.67918638  0.65393259  0.41633056  1
  H  H215  1  0.76413090  0.68936345  0.06553327  1
  C  C216  1  0.67937627  0.67288647  0.32090518  1
  H  H217  1  0.69040142  0.71134811  0.14188534  1
  H  H218  1  0.73592367  0.70245765  0.27675640  1
  H  H219  1  0.90876154  0.71717795  0.31437167  1
  H  H220  1  0.68033207  0.50800101  0.48988160  1
  C  C221  1  0.62244187  0.67458345  0.12672676  1
  Zn  Zn222  1  0.94721159  0.63306399  0.04953818  1
  N  N223  1  0.59601009  0.61579739  0.44107887  1
  H  H224  1  0.74581355  0.50194021  0.39050456  1
  C  C225  1  0.53803730  0.61715647  0.36782475  1
  H  H226  1  0.66593172  0.51032401  0.17574876  1
  C  C227  1  0.97452022  0.71957886  0.26660510  1
  H  H228  1  0.73193710  0.67191585  0.46763233  1
  N  N229  1  0.97892800  0.56524646  0.16868575  1
  Zn  Zn230  1  0.63456479  0.63577917  0.80187805  1
  C  C231  1  0.81833985  0.61669593  0.87407844  1
  H  H232  1  0.81972099  0.56361570  0.74006120  1
  N  N233  1  0.83066818  0.64145395  0.96007564  1
  N  N234  1  0.65564458  0.66279852  0.96693747  1
  C  C235  1  0.78330624  0.59682835  0.79785151  1
  C  C236  1  0.95086968  0.67878752  0.59093224  1
  H  H237  1  0.52209513  0.50962816  0.95574450  1
  C  C238  1  0.89183999  0.68882054  0.51185396  1
  H  H239  1  0.57830931  0.59642466  0.50814637  1
  H  H240  1  0.95917278  0.73551437  0.64223062  1
  H  H241  1  0.70743782  0.50767501  0.98115780  1
  C  C242  1  0.98424949  0.50893121  0.54554920  1
  H  H243  1  0.95575911  0.69381027  0.75590429  1
  C  C244  1  0.98900967  0.58551098  0.60742834  1
  C  C245  1  0.52206676  0.54684710  0.80243296  1
  C  C246  1  0.74773901  0.66756481  0.99387291  1
  C  C247  1  0.94418501  0.78862064  0.18426576  1
  H  H248  1  0.86617970  0.92643009  0.17241870  1
  C  C249  1  0.91527951  0.88155267  0.21077227  1
  C  C250  1  0.80334181  0.82224632  0.43622356  1
  N  N251  1  0.96754846  0.77054539  0.09763796  1
  C  C252  1  0.93388459  0.90732059  0.30253054  1
  H  H253  1  0.82278229  0.81385914  0.36543659  1
  H  H254  1  0.74797270  0.95612575  0.22295466  1
  N  N255  1  0.86514922  0.98186937  0.32512994  1
  H  H256  1  0.97982421  0.92319548  0.07262083  1
  C  C257  1  0.77933127  0.99554165  0.28151880  1
  H  H258  1  0.69837292  0.94148458  0.43278754  1
  C  C259  1  0.73837794  0.88902764  0.47255803  1
  C  C260  1  0.98815761  0.84722688  0.04535097  1
  Zn  Zn261  1  0.65942131  0.97233843  0.68045087  1
  H  H262  1  0.77610475  0.77544442  0.83819890  1
  H  H263  1  0.80036831  0.79542927  0.66065073  1
  C  C264  1  0.78816664  0.81070158  0.58887027  1
  C  C265  1  0.74220617  0.88893449  0.77053213  1
  N  N266  1  0.72633397  0.80267900  0.79183300  1
  H  H267  1  0.86733093  0.92463802  0.85855448  1
  N  N268  1  0.73022286  0.88133148  0.56697951  1
  C  C269  1  0.81212825  0.94912591  0.81036263  1
  N  N270  1  0.83108393  0.77546460  0.51135186  1
  H  H271  1  0.95677023  0.94630982  0.62613385  1
