# generated using pymatgen
data_CuH2(C3O2)2
_symmetry_space_group_name_H-M   'P 1'
_cell_length_a   14.53930164
_cell_length_b   21.43193510
_cell_length_c   8.52328335
_cell_angle_alpha   90.00000000
_cell_angle_beta   90.00000000
_cell_angle_gamma   90.00000000
_symmetry_Int_Tables_number   1
_chemical_formula_structural   CuH2(C3O2)2
_chemical_formula_sum   'Cu12 H24 C72 O48'
_cell_volume   2655.90085431
_cell_formula_units_Z   12
loop_
 _symmetry_equiv_pos_site_id
 _symmetry_equiv_pos_as_xyz
  1  'x, y, z'
loop_
 _atom_site_type_symbol
 _atom_site_label
 _atom_site_symmetry_multiplicity
 _atom_site_fract_x
 _atom_site_fract_y
 _atom_site_fract_z
 _atom_site_occupancy
  O  O0  1  0.03941323  0.04567169  0.46377419  1
  O  O1  1  0.19449461  0.17552303  0.22564743  1
  C  C2  1  0.11735529  0.20999782  0.45357436  1
  C  C3  1  0.19940045  0.19196984  0.36544285  1
  H  H4  1  0.02407906  0.18232773  0.27027852  1
  C  C5  1  0.02913398  0.20176809  0.38486018  1
  Cu  Cu6  1  0.18526254  0.23131980  0.05414449  1
  C  C7  1  0.06075409  0.27665827  0.85020006  1
  C  C8  1  0.04464822  0.25111052  0.68344307  1
  C  C9  1  0.12360402  0.23739745  0.60363574  1
  O  O10  1  0.14536716  0.28228883  0.89964498  1
  H  H11  1  0.19175563  0.24608601  0.65611344  1
  C  C12  1  0.05374960  0.01412509  0.57916259  1
  C  C13  1  0.01485051  0.03318420  0.73055754  1
  C  C14  1  0.09379755  0.78984337  0.23236238  1
  O  O15  1  0.14536014  0.75635533  0.30197585  1
  O  O16  1  0.03732291  0.83015677  0.29966842  1
  Cu  Cu17  1  0.06552439  0.89546992  0.44118049  1
  H  H18  1  0.19485445  0.71207761  0.04443205  1
  Cu  Cu19  1  0.19725077  0.98132398  0.09998440  1
  O  O20  1  0.08320476  0.94823901  0.17613359  1
  C  C21  1  0.09524013  0.78961640  0.05721170  1
  C  C22  1  0.01148608  0.97822602  0.14624797  1
  H  H23  1  0.07859683  0.76744814  0.61477491  1
  C  C24  1  0.08932447  0.77804471  0.73399915  1
  C  C25  1  0.03543446  0.82331148  0.81487772  1
  H  H26  1  0.08961099  0.96382564  0.86525301  1
  C  C27  1  0.14732073  0.73964486  0.81653995  1
  O  O28  1  0.09299816  0.95995059  0.57270341  1
  C  C29  1  0.20988552  0.68615494  0.75684696  1
  O  O30  1  0.20221252  0.67509849  0.61254883  1
  C  C31  1  0.03999443  0.83067633  0.97728145  1
  C  C32  1  0.03704233  0.99825169  0.86240243  1
  C  C33  1  0.15143314  0.74445961  0.98006405  1
  O  O34  1  0.37356651  0.43857980  0.37207839  1
  Cu  Cu35  1  0.37910609  0.13876801  0.41611993  1
  O  O36  1  0.43460824  0.44887899  0.06801828  1
  O  O37  1  0.45951180  0.20158913  0.41593828  1
  O  O38  1  0.30645890  0.00931143  0.19687269  1
  H  H39  1  0.44256022  0.31115610  0.38225820  1
  C  C40  1  0.31501310  0.01291276  0.34512657  1
  O  O41  1  0.37055241  0.31679650  0.12627976  1
  O  O42  1  0.30426935  0.06457969  0.41442297  1
  O  O43  1  0.27939488  0.19666533  0.43100244  1
  Cu  Cu44  1  0.47977786  0.47110560  0.26831526  1
  C  C45  1  0.36852900  0.28310188  0.01720857  1
  C  C46  1  0.39218691  0.36449526  0.77944498  1
  O  O47  1  0.29951643  0.44668768  0.59652283  1
  O  O48  1  0.31334818  0.23553416  0.99593988  1
  C  C49  1  0.41852023  0.37580396  0.60356717  1
  C  C50  1  0.42751138  0.30763469  0.86948462  1
  H  H51  1  0.32566913  0.38896384  0.81905254  1
  C  C52  1  0.35807790  0.42527775  0.51840807  1
  C  C53  1  0.47242413  0.25985907  0.77555729  1
  C  C54  1  0.48806206  0.40167599  0.81881246  1
  C  C55  1  0.46614995  0.45991590  0.92665203  1
  C  C56  1  0.45762515  0.31886873  0.51546687  1
  C  C57  1  0.35016190  0.89932923  0.35493819  1
  C  C58  1  0.38501526  0.78809203  0.37239346  1
  O  O59  1  0.39781782  0.78907437  0.23024439  1
  H  H60  1  0.37197372  0.89762139  0.23220974  1
  C  C61  1  0.32100507  0.95294598  0.43173672  1
  Cu  Cu62  1  0.47930972  0.67827505  0.39717199  1
  O  O63  1  0.39549596  0.73628150  0.45222932  1
  C  C64  1  0.35470942  0.84680969  0.45085652  1
  C  C65  1  0.27480579  0.90909331  0.84656474  1
  H  H66  1  0.33941891  0.80385486  0.67496442  1
  C  C67  1  0.29586867  0.95623499  0.59053185  1
  C  C68  1  0.30129640  0.90234026  0.67996476  1
  C  C69  1  0.32633349  0.84736111  0.60959591  1
  H  H70  1  0.29940382  0.82527336  0.85936935  1
  H  H71  1  0.27013856  0.99893733  0.63816850  1
  O  O72  1  0.25948091  0.65460828  0.83540347  1
  O  O73  1  0.26696632  0.85659694  0.92867403  1
  O  O74  1  0.25222851  0.96093758  0.90123142  1
  O  O75  1  0.47203362  0.51363941  0.88807718  1
  O  O76  1  0.55135460  0.39326357  0.30261776  1
  O  O77  1  0.69283720  0.36738563  0.38625751  1
  C  C78  1  0.60529033  0.37305944  0.40670377  1
  H  H79  1  0.55909747  0.35590783  0.02610166  1
  O  O80  1  0.67661955  0.26676628  0.01769505  1
  C  C81  1  0.55926920  0.28708527  0.82387072  1
  C  C82  1  0.59663796  0.30577953  0.64925414  1
  C  C83  1  0.53109230  0.34706245  0.90744994  1
  C  C84  1  0.51961575  0.40921277  0.64318108  1
  H  H85  1  0.53231866  0.45813452  0.60522046  1
  H  H86  1  0.66039885  0.28290261  0.60518034  1
  Cu  Cu87  1  0.69712144  0.17357424  0.66289491  1
  O  O88  1  0.63238847  0.19318841  0.85136335  1
  C  C89  1  0.62631128  0.24725701  0.90500189  1
  C  C90  1  0.55690050  0.35601261  0.54649441  1
  H  H91  1  0.66041707  0.46714950  0.51739116  1
  O  O92  1  0.57754238  0.16874746  0.55649214  1
  C  C93  1  0.50296644  0.26555529  0.60975429  1
  C  C94  1  0.51848977  0.20743917  0.52242801  1
  C  C95  1  0.57074719  0.56674431  0.41073820  1
  C  C96  1  0.65197727  0.83480953  0.36139325  1
  O  O97  1  0.51873893  0.52151094  0.42630325  1
  H  H98  1  0.63032506  0.78514970  0.14311592  1
  C  C99  1  0.68027077  0.88767500  0.44433838  1
  C  C100  1  0.65413038  0.82970316  0.19893788  1
  O  O101  1  0.54965352  0.61481146  0.32752255  1
  O  O102  1  0.57951339  0.73502339  0.37312427  1
  C  C103  1  0.71684863  0.93406079  0.34751245  1
  C  C104  1  0.69573269  0.87680467  0.11036857  1
  C  C105  1  0.61352119  0.78054339  0.44376031  1
  C  C106  1  0.72522778  0.93093659  0.18889721  1
  H  H107  1  0.74703101  0.97308336  0.12878320  1
  C  C108  1  0.71276853  0.62215404  0.49568165  1
  H  H109  1  0.68106906  0.66789994  0.47158526  1
  C  C110  1  0.66133616  0.56841550  0.48605468  1
  H  H111  1  0.67183008  0.89288432  0.57579984  1
  O  O112  1  0.67957714  0.82041337  0.87270153  1
  Cu  Cu113  1  0.73893338  0.77553331  0.71031051  1
  O  O114  1  0.62152134  0.77830111  0.59474391  1
  C  C115  1  0.70207906  0.87143712  0.93534802  1
  C  C116  1  0.69717930  0.51030956  0.54146425  1
  O  O117  1  0.72698369  0.91665607  0.85186894  1
  C  C118  1  0.86779594  0.23030340  0.38324266  1
  C  C119  1  0.95590570  0.22577752  0.47038068  1
  O  O120  1  0.79402527  0.03182159  0.36783093  1
  Cu  Cu121  1  0.92169294  0.04398094  0.39317448  1
  O  O122  1  0.85893636  0.19695804  0.26017928  1
  H  H123  1  0.88129664  0.06663586  0.12355051  1
  O  O124  1  0.80112311  0.25771027  0.43651347  1
  Cu  Cu125  1  0.76389704  0.22077495  0.11910994  1
  O  O126  1  0.78632561  0.14359766  0.01390056  1
  C  C127  1  0.91386719  0.05012816  0.00938116  1
  C  C128  1  0.95016587  0.08079873  0.74025488  1
  C  C129  1  0.89919484  0.08796600  0.87884677  1
  H  H130  1  0.92902588  0.11142186  0.64229515  1
  O  O131  1  0.89820796  0.45671317  0.71846370  1
  C  C132  1  0.82942690  0.13558176  0.88779151  1
  H  H133  1  0.89473262  0.26159158  0.69481976  1
  C  C134  1  0.98321453  0.00586891  0.99782284  1
  C  C135  1  0.95570609  0.24876770  0.62166498  1
  C  C136  1  0.82309617  0.45622821  0.66519744  1
  O  O137  1  0.80985816  0.16874081  0.76719929  1
  O  O138  1  0.77222074  0.40529693  0.64389229  1
  O  O139  1  0.99618972  0.29267917  0.92009943  1
  Cu  Cu140  1  0.78339765  0.33419977  0.52287204  1
  O  O141  1  0.94867524  0.97943209  0.24639623  1
  H  H142  1  0.99923324  0.86949904  0.02271106  1
  C  C143  1  0.75537659  0.98830943  0.43411010  1
  O  O144  1  0.92962344  0.68928857  0.63343500  1
  Cu  Cu145  1  0.82615838  0.93763236  0.70604102  1
  O  O146  1  0.90958373  0.89007104  0.79876742  1
  C  C147  1  0.85171704  0.68401956  0.58697274  1
  H  H148  1  0.90383725  0.56552286  0.68315850  1
  O  O149  1  0.97423364  0.86279821  0.57510180  1
  O  O150  1  0.80530359  0.73386745  0.54999969  1
  C  C151  1  0.83845454  0.56954243  0.61770006  1
  C  C152  1  0.80034757  0.62489250  0.56437566  1
  C  C153  1  0.78282014  0.51628324  0.60403941  1
  C  C154  1  0.97322547  0.86256787  0.72455231  1
  O  O155  1  0.75048787  0.98683305  0.58530324  1
