# generated using pymatgen
data_CuH2(C3O2)2
_symmetry_space_group_name_H-M   'P 1'
_cell_length_a   21.11598182
_cell_length_b   14.00610327
_cell_length_c   8.87800586
_cell_angle_alpha   90.00000000
_cell_angle_beta   90.00000000
_cell_angle_gamma   90.00000000
_symmetry_Int_Tables_number   1
_chemical_formula_structural   CuH2(C3O2)2
_chemical_formula_sum   'Cu12 H24 C72 O48'
_cell_volume   2625.69351141
_cell_formula_units_Z   12
loop_
 _symmetry_equiv_pos_site_id
 _symmetry_equiv_pos_as_xyz
  1  'x, y, z'
loop_
 _atom_site_type_symbol
 _atom_site_label
 _atom_site_symmetry_multiplicity
 _atom_site_fract_x
 _atom_site_fract_y
 _atom_site_fract_z
 _atom_site_occupancy
  O  O0  1  0.17904876  0.18021605  0.08089004  1
  C  C1  1  0.04367559  0.08956870  0.37858280  1
  C  C2  1  0.09588535  0.10654352  0.48558456  1
  C  C3  1  0.19659249  0.43036299  0.08153200  1
  H  H4  1  0.14938076  0.26802838  0.32917165  1
  C  C5  1  0.14963411  0.42361045  0.37702281  1
  C  C6  1  0.18120955  0.34140319  0.14522858  1
  C  C7  1  0.16000043  0.33984024  0.29350200  1
  C  C8  1  0.19412040  0.26082868  0.03830749  1
  H  H9  1  0.13105117  0.16551997  0.46973509  1
  Cu  Cu10  1  0.21360802  0.06314584  0.00407861  1
  O  O11  1  0.18576782  0.15792165  0.68524628  1
  C  C12  1  0.15157941  0.08783305  0.71461923  1
  C  C13  1  0.13586982  0.41135425  0.53182092  1
  O  O14  1  0.22016872  0.27375523  0.91285997  1
  O  O15  1  0.12505870  0.32514031  0.57658754  1
  H  H16  1  0.00304868  0.10378134  0.73872761  1
  Cu  Cu17  1  0.17182644  0.28937805  0.74438974  1
  O  O18  1  0.13361490  0.48178633  0.62606826  1
  C  C19  1  0.10426309  0.05432353  0.61164857  1
  O  O20  1  0.15912894  0.04805733  0.84686109  1
  H  H21  1  0.21349849  0.44064864  0.96497880  1
  O  O22  1  0.17810812  0.67745928  0.16198509  1
  H  H23  1  0.14564702  0.57499464  0.35137138  1
  C  C24  1  0.18839766  0.61157366  0.08179363  1
  C  C25  1  0.01512098  0.89377821  0.43204303  1
  O  O26  1  0.21772751  0.97956231  0.31323318  1
  C  C27  1  0.15928818  0.51012787  0.30123606  1
  C  C28  1  0.24478665  0.93118050  0.22174179  1
  C  C29  1  0.18272185  0.51508119  0.15478059  1
  H  H30  1  0.00224299  0.82561584  0.37498219  1
  H  H31  1  0.00901706  0.98395226  0.21195641  1
  C  C32  1  0.01641200  0.99424396  0.33148991  1
  O  O33  1  0.20296241  0.62332230  0.93929992  1
  C  C34  1  0.05661959  0.97487385  0.66887536  1
  Cu  Cu35  1  0.15971785  0.70713537  0.81568558  1
  C  C36  1  0.05040654  0.88557422  0.57157142  1
  Cu  Cu37  1  0.10680605  0.60817336  0.59368325  1
  O  O38  1  0.11059464  0.79827493  0.74026224  1
  O  O39  1  0.22707839  0.74986322  0.70637255  1
  C  C40  1  0.08219477  0.80334811  0.61565158  1
  H  H41  1  0.07328841  0.94567040  0.77896725  1
  O  O42  1  0.07861642  0.72097797  0.54317437  1
  H  H43  1  0.22589716  0.86041550  0.50031465  1
  O  O44  1  0.32060874  0.38613006  0.33171432  1
  O  O45  1  0.29484576  0.23523228  0.29099989  1
  C  C46  1  0.31604211  0.29440083  0.36943648  1
  Cu  Cu47  1  0.36187378  0.41270487  0.16546170  1
  O  O48  1  0.40211381  0.06722190  0.93934984  1
  C  C49  1  0.38591616  0.26820205  0.82311086  1
  C  C50  1  0.37028088  0.18808574  0.73801506  1
  C  C51  1  0.33992049  0.28109049  0.52617541  1
  H  H52  1  0.35164526  0.43117929  0.54709791  1
  C  C53  1  0.39366685  0.43898146  0.85333515  1
  C  C54  1  0.37820398  0.35718710  0.75390680  1
  C  C55  1  0.35874292  0.36278378  0.60437755  1
  C  C56  1  0.34322555  0.19166002  0.59388110  1
  H  H57  1  0.32716155  0.12575037  0.53974586  1
  C  C58  1  0.37624507  0.09153994  0.80687878  1
  O  O59  1  0.35619596  0.03121523  0.72749561  1
  H  H60  1  0.40585454  0.26122184  0.94194768  1
  O  O61  1  0.40728962  0.42224538  0.98934970  1
  C  C62  1  0.36750623  0.62621826  0.15736119  1
  C  C63  1  0.31712025  0.78858714  0.19262871  1
  H  H64  1  0.32671311  0.80901267  0.07324213  1
  C  C65  1  0.33232634  0.69513000  0.24314418  1
  O  O66  1  0.38559677  0.64597122  0.02532281  1
  O  O67  1  0.38140303  0.54351117  0.21317510  1
  C  C68  1  0.31377935  0.66506642  0.38843544  1
  H  H69  1  0.32341689  0.59437508  0.42539062  1
  O  O70  1  0.48119379  0.91880838  0.12410443  1
  C  C71  1  0.27502526  0.83975937  0.27635445  1
  O  O72  1  0.25322632  0.95609870  0.08175501  1
  C  C73  1  0.25552203  0.81643860  0.42230880  1
  C  C74  1  0.27907001  0.72852195  0.47580296  1
  O  O75  1  0.29151892  0.62586308  0.67838499  1
  Cu  Cu76  1  0.34112720  0.62622473  0.84979108  1
  Cu  Cu77  1  0.44085049  0.95125371  0.95989822  1
  O  O78  1  0.39274460  0.52110339  0.79578150  1
  C  C79  1  0.26608224  0.70036960  0.62811539  1
  O  O80  1  0.48520740  0.87073261  0.83713183  1
  H  H81  1  0.51986746  0.09431884  0.09519651  1
  C  C82  1  0.55791140  0.07591321  0.02078211  1
  O  O83  1  0.74786881  0.29598028  0.31184632  1
  O  O84  1  0.53532843  0.27823267  0.02615146  1
  Cu  Cu85  1  0.60476279  0.43296948  0.87305007  1
  C  C86  1  0.66296111  0.03134286  0.86274794  1
  H  H87  1  0.66625921  0.17736490  0.77192040  1
  C  C88  1  0.64163817  0.12499550  0.84419494  1
  C  C89  1  0.57305238  0.24996979  0.93503656  1
  C  C90  1  0.58980591  0.14623480  0.93480259  1
  O  O91  1  0.60299153  0.31215049  0.84023363  1
  C  C92  1  0.72306632  0.00675977  0.78682758  1
  O  O93  1  0.74138285  0.06221392  0.68776317  1
  O  O94  1  0.57017310  0.84214194  0.16389410  1
  C  C95  1  0.54262513  0.91062676  0.11696353  1
  C  C96  1  0.57947653  0.98334053  0.02670365  1
  O  O97  1  0.73439063  0.93486410  0.45749981  1
  H  H98  1  0.54803978  0.72931688  0.85271897  1
  C  C99  1  0.63374999  0.87860644  0.62173638  1
  O  O100  1  0.61354448  0.56688464  0.90754689  1
  C  C101  1  0.69252577  0.72724348  0.66196723  1
  C  C102  1  0.66210418  0.60381995  0.83671251  1
  C  C103  1  0.68642222  0.82053861  0.60371217  1
  C  C104  1  0.58927072  0.74963747  0.77732036  1
  C  C105  1  0.58673418  0.83867507  0.71238726  1
  C  C106  1  0.64591150  0.70009152  0.75852526  1
  C  C107  1  0.63443425  0.96051295  0.95071203  1
  C  C108  1  0.52861613  0.90544224  0.74018312  1
  H  H109  1  0.65349883  0.88933293  0.95213036  1
  H  H110  1  0.63107198  0.95446311  0.56432488  1
  O  O111  1  0.71130662  0.56723650  0.81493305  1
  H  H112  1  0.73698210  0.68097859  0.65541062  1
  O  O113  1  0.52107726  0.98568229  0.69284668  1
  C  C114  1  0.73756738  0.84986735  0.50350544  1
  C  C115  1  0.96679409  0.40881539  0.06277897  1
  Cu  Cu116  1  0.92233453  0.34454884  0.33332509  1
  C  C117  1  0.99419887  0.16188463  0.38477610  1
  O  O118  1  0.96826423  0.42456209  0.20435009  1
  H  H119  1  0.99753225  0.23566903  0.35007665  1
  O  O120  1  0.87930839  0.26053761  0.46723940  1
  C  C121  1  0.94826138  0.12808210  0.48216987  1
  C  C122  1  0.76685240  0.35470173  0.23098056  1
  O  O123  1  0.78730274  0.41123345  0.14749675  1
  O  O124  1  0.98338863  0.33507960  0.00764526  1
  O  O125  1  0.97241495  0.01462617  0.94676271  1
  Cu  Cu126  1  0.79423783  0.03380518  0.52193687  1
  C  C127  1  0.95712410  0.03344012  0.56153468  1
  O  O128  1  0.85030790  0.12961631  0.59350186  1
  C  C129  1  0.93338132  0.46234762  0.80843470  1
  H  H130  1  0.95014821  0.39513202  0.76846410  1
  C  C131  1  0.88976248  0.17883130  0.51892054  1
  C  C132  1  0.93817638  0.48310708  0.96124917  1
  C  C133  1  0.99207272  0.03060387  0.69647147  1
  O  O134  1  0.93583901  0.42983161  0.50207291  1
  C  C135  1  0.89925722  0.93460540  0.36703744  1
  O  O136  1  0.87148366  0.73895250  0.10647016  1
  Cu  Cu137  1  0.82539357  0.77627299  0.28078471  1
  O  O138  1  0.89152562  0.84759557  0.34995325  1
  H  H139  1  0.91177809  0.59066839  0.12662897  1
  C  C140  1  0.95868523  0.97199402  0.43108056  1
  O  O141  1  0.87904588  0.56121821  0.46318115  1
  O  O142  1  0.78161536  0.79346238  0.45969267  1
  O  O143  1  0.85435854  0.99632950  0.36683047  1
  C  C144  1  0.91221256  0.56915505  0.00698518  1
  C  C145  1  0.90817073  0.53007828  0.70826856  1
  O  O146  1  0.92339748  0.91186382  0.80310047  1
  Cu  Cu147  1  0.83705791  0.91502612  0.82250901  1
  C  C148  1  0.88245957  0.61807851  0.75567521  1
  O  O149  1  0.82791032  0.77774737  0.88739843  1
  H  H150  1  0.86671927  0.67243191  0.66803501  1
  C  C151  1  0.90383324  0.50440653  0.54799993  1
  C  C152  1  0.88646582  0.63566533  0.90648580  1
  C  C153  1  0.85955607  0.72455048  0.96745711  1
  O  O154  1  0.75282807  0.93160106  0.82861448  1
  C  C155  1  0.96176914  0.98304335  0.82679164  1
