# generated using pymatgen
data_CuH2(C3O2)2
_symmetry_space_group_name_H-M   'P 1'
_cell_length_a   19.81310190
_cell_length_b   16.87404476
_cell_length_c   8.09893862
_cell_angle_alpha   90.00000000
_cell_angle_beta   90.00000000
_cell_angle_gamma   90.00000000
_symmetry_Int_Tables_number   1
_chemical_formula_structural   CuH2(C3O2)2
_chemical_formula_sum   'Cu12 H24 C72 O48'
_cell_volume   2707.69521643
_cell_formula_units_Z   12
loop_
 _symmetry_equiv_pos_site_id
 _symmetry_equiv_pos_as_xyz
  1  'x, y, z'
loop_
 _atom_site_type_symbol
 _atom_site_label
 _atom_site_symmetry_multiplicity
 _atom_site_fract_x
 _atom_site_fract_y
 _atom_site_fract_z
 _atom_site_occupancy
  O  O0  1  0.16930394  0.44471670  0.33550451  1
  C  C1  1  0.12830299  0.05950828  0.10171837  1
  H  H2  1  0.06059927  0.14376777  0.21857130  1
  C  C3  1  0.07215889  0.08143783  0.18688740  1
  O  O4  1  0.15620081  0.19844047  0.07211973  1
  Cu  Cu5  1  0.20216713  0.26101128  0.22273362  1
  C  C6  1  0.03221743  0.01859685  0.25027760  1
  C  C7  1  0.17072024  0.12421172  0.04649230  1
  C  C8  1  0.21069147  0.05146247  0.46008975  1
  C  C9  1  0.22127297  0.41222439  0.31301391  1
  O  O10  1  0.23392427  0.33960108  0.34884988  1
  O  O11  1  0.23796898  0.18115587  0.37064247  1
  O  O12  1  0.03231847  0.12149264  0.66481551  1
  C  C13  1  0.15505244  0.08185252  0.54585125  1
  H  H14  1  0.14097533  0.14529204  0.55397544  1
  C  C15  1  0.05000619  0.05117399  0.70680582  1
  O  O16  1  0.01061839  0.00751392  0.76873760  1
  C  C17  1  0.11728253  0.02402717  0.62569224  1
  O  O18  1  0.22641348  0.10296843  0.98473899  1
  C  C19  1  0.14138761  0.98031452  0.06322190  1
  C  C20  1  0.04312910  0.93836002  0.22764190  1
  C  C21  1  0.09715967  0.92260645  0.11852435  1
  O  O22  1  0.07638803  0.78528769  0.14773226  1
  C  C23  1  0.11380086  0.83991515  0.09146034  1
  H  H24  1  0.01574735  0.89312522  0.30572967  1
  O  O25  1  0.16630169  0.82659632  0.00327229  1
  H  H26  1  0.20060297  0.53837336  0.09268550  1
  C  C27  1  0.22971904  0.97025510  0.47008646  1
  Cu  Cu28  1  0.18951165  0.74581227  0.84828952  1
  C  C29  1  0.12913083  0.94541759  0.64101593  1
  C  C30  1  0.18814554  0.92082491  0.55822882  1
  O  O31  1  0.16572560  0.78984302  0.64567732  1
  H  H32  1  0.09139834  0.90318363  0.71087887  1
  C  C33  1  0.20365128  0.83508193  0.56361420  1
  O  O34  1  0.21589768  0.63768528  0.91011194  1
  H  H35  1  0.18563222  0.96347230  0.98824627  1
  C  C36  1  0.33891123  0.42346204  0.20157076  1
  O  O37  1  0.41549817  0.10349328  0.14131287  1
  C  C38  1  0.38731220  0.46226917  0.10068495  1
  H  H39  1  0.35058384  0.37139690  0.28327717  1
  Cu  Cu40  1  0.31824247  0.09874789  0.06721348  1
  O  O41  1  0.30225520  0.08622515  0.28331727  1
  O  O42  1  0.47652974  0.37424493  0.17289443  1
  C  C43  1  0.27555308  0.45777714  0.21186256  1
  C  C44  1  0.45748476  0.43680586  0.09659358  1
  Cu  Cu45  1  0.48560259  0.27072630  0.08084889  1
  C  C46  1  0.46178650  0.10304878  0.03446743  1
  C  C47  1  0.25248273  0.10812545  0.36519568  1
  O  O48  1  0.49900429  0.47664433  0.01227296  1
  O  O49  1  0.41198414  0.21158501  0.71000142  1
  C  C50  1  0.46968087  0.03760939  0.92110678  1
  O  O51  1  0.42438389  0.29813674  0.90524575  1
  C  C52  1  0.44458511  0.26246674  0.77290152  1
  O  O53  1  0.49860395  0.16370132  0.99896359  1
  C  C54  1  0.25263736  0.51787185  0.10787874  1
  H  H55  1  0.40055262  0.96468251  0.07142062  1
  H  H56  1  0.27125193  0.94619430  0.40038977  1
  C  C57  1  0.36689436  0.52535353  0.00198459  1
  O  O58  1  0.36605243  0.80107485  0.72464521  1
  C  C59  1  0.47158027  0.90894506  0.70476223  1
  C  C60  1  0.42919502  0.96942444  0.95675104  1
  Cu  Cu61  1  0.29703543  0.73487282  0.64525360  1
  C  C62  1  0.42796295  0.91184783  0.83853193  1
  C  C63  1  0.37302101  0.84931856  0.85006342  1
  O  O64  1  0.31323713  0.64596728  0.78123231  1
  H  H65  1  0.47470236  0.85473044  0.62584471  1
  C  C66  1  0.27630415  0.61262951  0.88668427  1
  C  C67  1  0.29949871  0.55108607  0.99757269  1
  H  H68  1  0.40599678  0.55193335  0.92530327  1
  O  O69  1  0.33832900  0.84586119  0.96745605  1
  O  O70  1  0.25898226  0.81384352  0.50126638  1
  O  O71  1  0.67164458  0.08912672  0.10862891  1
  C  C72  1  0.63078200  0.24117812  0.35623518  1
  Cu  Cu73  1  0.62938000  0.07087608  0.31012625  1
  O  O74  1  0.59609487  0.17625134  0.31170798  1
  O  O75  1  0.68144051  0.25980909  0.29165494  1
  O  O76  1  0.63335737  0.42629713  0.00324516  1
  H  H77  1  0.51463244  0.20754256  0.49599378  1
  C  C78  1  0.61847516  0.36045298  0.75126106  1
  C  C79  1  0.70906414  0.05709695  0.82788404  1
  H  H80  1  0.69802839  0.35026904  0.56782448  1
  C  C81  1  0.51098902  0.04018619  0.78591704  1
  C  C82  1  0.65904195  0.40756084  0.86541762  1
  C  C83  1  0.55017941  0.34254229  0.79258256  1
  C  C84  1  0.64630991  0.33137707  0.60417710  1
  C  C85  1  0.51325909  0.28551323  0.70983927  1
  C  C86  1  0.60707321  0.27659686  0.52191215  1
  H  H87  1  0.52730589  0.37222768  0.89914359  1
  O  O88  1  0.71655171  0.43090150  0.82522467  1
  C  C89  1  0.54371700  0.24927045  0.57113617  1
  H  H90  1  0.54654169  0.08776793  0.76328178  1
  C  C91  1  0.67413067  0.03672004  0.98361905  1
  H  H92  1  0.73436942  0.17879056  0.91546390  1
  C  C93  1  0.74011368  0.13196394  0.81789388  1
  O  O94  1  0.58831541  0.04596472  0.50585044  1
  O  O95  1  0.65942064  0.55979561  0.14966683  1
  C  C96  1  0.68087856  0.62547918  0.06569963  1
  O  O97  1  0.72834864  0.89279816  0.43335298  1
  O  O98  1  0.57930791  0.91862796  0.46901518  1
  O  O99  1  0.64470198  0.68282986  0.04242228  1
  Cu  Cu100  1  0.58127252  0.51495639  0.08267472  1
  C  C101  1  0.70034374  0.71225842  0.63244220  1
  H  H102  1  0.68963754  0.94021109  0.73564101  1
  H  H103  1  0.73319945  0.54934334  0.66074038  1
  O  O104  1  0.64488186  0.97605883  0.98769892  1
  O  O105  1  0.70421475  0.78943299  0.65024656  1
  O  O106  1  0.64958208  0.67947849  0.59854046  1
  H  H107  1  0.74062445  0.74288737  0.89705052  1
  C  C108  1  0.74774356  0.61920303  0.98881665  1
  C  C109  1  0.51183543  0.97503388  0.67661272  1
  C  C110  1  0.71494175  0.99558293  0.71622030  1
  Cu  Cu111  1  0.64977980  0.85241220  0.54162361  1
  C  C112  1  0.56163359  0.98202963  0.54143541  1
  C  C113  1  0.97238382  0.03693440  0.35107788  1
  O  O114  1  0.87531789  0.45694808  0.38827382  1
  O  O115  1  0.95913750  0.10843107  0.38163081  1
  H  H116  1  0.81558686  0.09516248  0.44503973  1
  C  C117  1  0.83184844  0.47953421  0.47938750  1
  Cu  Cu118  1  0.80219262  0.37735732  0.75989683  1
  O  O119  1  0.81738843  0.27002961  0.78407731  1
  C  C120  1  0.81992194  0.21648404  0.67197699  1
  O  O121  1  0.79265043  0.42787621  0.54537632  1
  Cu  Cu122  1  0.95115143  0.16308770  0.58651401  1
  O  O123  1  0.85545457  0.42395551  0.92748484  1
  C  C124  1  0.78309865  0.14379587  0.68609752  1
  O  O125  1  0.86440429  0.21255657  0.56221131  1
  C  C126  1  0.78640914  0.08478376  0.56273203  1
  C  C127  1  0.89230937  0.48734747  0.89175085  1
  O  O128  1  0.94461895  0.48296275  0.82434245  1
  C  C129  1  0.75373771  0.01256981  0.57418182  1
  H  H130  1  0.91990975  0.58437223  0.38101030  1
  O  O131  1  0.94169379  0.97988201  0.42410772  1
  Cu  Cu132  1  0.87583257  0.90484351  0.35260939  1
  O  O133  1  0.92541310  0.81592229  0.44970424  1
  C  C134  1  0.88286280  0.61031664  0.46925394  1
  O  O135  1  0.96152049  0.71921164  0.29685702  1
  C  C136  1  0.92279735  0.74099101  0.41359147  1
  O  O137  1  0.80613868  0.97532875  0.33524473  1
  H  H138  1  0.78405136  0.50255721  0.04669682  1
  C  C139  1  0.75661910  0.95927004  0.43300368  1
  Cu  Cu140  1  0.98660015  0.76601182  0.10117498  1
  C  C141  1  0.84427654  0.69992855  0.83246936  1
  C  C142  1  0.77156411  0.68758373  0.87831186  1
  H  H143  1  0.93376554  0.63070353  0.77957323  1
  C  C144  1  0.87878957  0.77455348  0.89000954  1
  C  C145  1  0.82762496  0.71919272  0.63014680  1
  C  C146  1  0.77464939  0.59136783  0.62245509  1
  H  H147  1  0.81700241  0.78514205  0.61057939  1
  O  O148  1  0.94281393  0.76905696  0.90791145  1
  C  C149  1  0.88647431  0.63221578  0.84463705  1
  C  C150  1  0.85741684  0.56617298  0.91329453  1
  O  O151  1  0.84668130  0.83445145  0.90703014  1
  C  C152  1  0.76616018  0.67140947  0.66599397  1
  C  C153  1  0.82951220  0.56487272  0.54113894  1
  C  C154  1  0.88151403  0.68934249  0.50163006  1
  C  C155  1  0.79562600  0.56050386  0.99365244  1
