# generated using pymatgen
data_CuH2(C3O2)2
_symmetry_space_group_name_H-M   'P 1'
_cell_length_a   20.81855553
_cell_length_b   15.34415187
_cell_length_c   8.67880610
_cell_angle_alpha   90.00000000
_cell_angle_beta   90.00000000
_cell_angle_gamma   90.00000000
_symmetry_Int_Tables_number   1
_chemical_formula_structural   CuH2(C3O2)2
_chemical_formula_sum   'Cu12 H24 C72 O48'
_cell_volume   2772.38453152
_cell_formula_units_Z   12
loop_
 _symmetry_equiv_pos_site_id
 _symmetry_equiv_pos_as_xyz
  1  'x, y, z'
loop_
 _atom_site_type_symbol
 _atom_site_label
 _atom_site_symmetry_multiplicity
 _atom_site_fract_x
 _atom_site_fract_y
 _atom_site_fract_z
 _atom_site_occupancy
  C  C0  1  0.11049665  0.39088542  0.32115760  1
  C  C1  1  0.05045338  0.09599442  0.42499742  1
  O  O2  1  0.01786418  0.42966672  0.08564927  1
  Cu  Cu3  1  0.14182989  0.21408443  0.27111983  1
  O  O4  1  0.13578677  0.21194279  0.04085389  1
  O  O5  1  0.14020157  0.41372099  0.19759228  1
  C  C6  1  0.06732923  0.45620827  0.37813279  1
  Cu  Cu7  1  0.10016910  0.48838581  0.05636646  1
  O  O8  1  0.11846770  0.31678960  0.38002406  1
  H  H9  1  0.02963675  0.24185797  0.13010598  1
  O  O10  1  0.10769214  0.10884067  0.37667444  1
  O  O11  1  0.22750063  0.20100091  0.32968348  1
  C  C12  1  0.00983105  0.18144005  0.08496332  1
  C  C13  1  0.00982574  0.02294290  0.34771934  1
  O  O14  1  0.14437273  0.12758519  0.83202735  1
  C  C15  1  0.01059860  0.06681386  0.89868974  1
  C  C16  1  0.04508418  0.13557836  0.97033446  1
  Cu  Cu17  1  0.21296020  0.17325271  0.71504827  1
  O  O18  1  0.02548908  0.14393977  0.51653994  1
  H  H19  1  0.03169923  0.03119925  0.80256648  1
  C  C20  1  0.11212682  0.15730440  0.94676731  1
  H  H21  1  0.03716345  0.36881735  0.56112253  1
  C  C22  1  0.03452529  0.43528810  0.51367460  1
  H  H23  1  0.03656442  0.75636948  0.34506224  1
  O  O24  1  0.13868998  0.74679972  0.22983413  1
  C  C25  1  0.08685608  0.62955640  0.34000075  1
  C  C26  1  0.13131485  0.66644486  0.21830047  1
  C  C27  1  0.06329477  0.54332657  0.30927564  1
  C  C28  1  0.03536536  0.97506830  0.22617540  1
  O  O29  1  0.15892611  0.62100853  0.12016066  1
  C  C30  1  0.02674489  0.85725506  0.04115626  1
  C  C31  1  0.03597321  0.69131085  0.40032849  1
  Cu  Cu32  1  0.16204872  0.81416655  0.05896245  1
  H  H33  1  0.08709881  0.98281076  0.18679173  1
  O  O34  1  0.08474362  0.87545342  0.00478643  1
  C  C35  1  0.05998542  0.61456187  0.64554098  1
  C  C36  1  0.09285724  0.59466937  0.78132379  1
  O  O37  1  0.15258167  0.61632115  0.80049418  1
  O  O38  1  0.20252642  0.85940427  0.89363894  1
  O  O39  1  0.06441098  0.55753322  0.89740176  1
  C  C40  1  0.09340036  0.65687697  0.52009298  1
  H  H41  1  0.13295287  0.70079156  0.54949767  1
  Cu  Cu42  1  0.20942254  0.66618217  0.95252719  1
  C  C43  1  0.35411815  0.38571740  0.17277378  1
  C  C44  1  0.31307189  0.31908659  0.21637973  1
  C  C45  1  0.31055761  0.30200644  0.37629378  1
  H  H46  1  0.28455344  0.28099794  0.13580579  1
  C  C47  1  0.35107509  0.42068387  0.01321921  1
  C  C48  1  0.39496782  0.40348171  0.42326320  1
  C  C49  1  0.39830516  0.42938978  0.26915715  1
  C  C50  1  0.26514806  0.23809094  0.42814574  1
  C  C51  1  0.35083182  0.34576414  0.48141674  1
  H  H52  1  0.42860217  0.48733957  0.22866808  1
  C  C53  1  0.35720817  0.01948949  0.80411398  1
  H  H54  1  0.34779522  0.33038366  0.60540703  1
  O  O55  1  0.38512602  0.16403556  0.74983155  1
  O  O56  1  0.28691690  0.14385969  0.84137587  1
  C  C57  1  0.34480279  0.11553082  0.80321736  1
  H  H58  1  0.45678448  0.03499279  0.73901622  1
  O  O59  1  0.31591348  0.38528457  0.92300798  1
  H  H60  1  0.25138359  0.00301154  0.85472910  1
  C  C61  1  0.43425199  0.45468521  0.53744380  1
  O  O62  1  0.42664301  0.43543079  0.68630713  1
  Cu  Cu63  1  0.46183813  0.49344355  0.84927728  1
  O  O64  1  0.26596864  0.22626141  0.57445623  1
  O  O65  1  0.38468878  0.48835304  0.97549462  1
  O  O66  1  0.47269514  0.50318841  0.48674054  1
  C  C67  1  0.29892189  0.97449733  0.82835790  1
  C  C68  1  0.36966612  0.85082235  0.78760423  1
  C  C69  1  0.30823169  0.88539656  0.81723773  1
  H  H70  1  0.37682622  0.78151262  0.76283769  1
  C  C71  1  0.42474334  0.89896866  0.76012889  1
  O  O72  1  0.48922911  0.78218869  0.79764542  1
  O  O73  1  0.25769064  0.74380640  0.83189987  1
  C  C74  1  0.48542635  0.85790508  0.73644522  1
  C  C75  1  0.25500166  0.82528045  0.84684061  1
  C  C76  1  0.41761804  0.98945012  0.76434858  1
  H  H77  1  0.58346162  0.44323949  0.14668834  1
  O  O78  1  0.69536211  0.10875803  0.38368722  1
  O  O79  1  0.74035866  0.14993850  0.16637826  1
  C  C80  1  0.68708451  0.37238107  0.26101678  1
  C  C81  1  0.70919095  0.09668566  0.24820813  1
  O  O82  1  0.63797546  0.33416502  0.28158707  1
  C  C83  1  0.68559635  0.01461440  0.16970026  1
  C  C84  1  0.68652310  0.46157770  0.19086504  1
  C  C85  1  0.62466676  0.48587651  0.13512631  1
  O  O86  1  0.74404234  0.34301039  0.31053771  1
  H  H87  1  0.73734256  0.04285390  0.96308393  1
  O  O88  1  0.54214791  0.77280460  0.20460422  1
  C  C89  1  0.56893576  0.83682903  0.26871157  1
  O  O90  1  0.55968412  0.86555781  0.40087023  1
  C  C91  1  0.67364603  0.61759856  0.04614534  1
  C  C92  1  0.73820254  0.51994734  0.19112180  1
  C  C93  1  0.61614010  0.88725336  0.17809531  1
  C  C94  1  0.73138776  0.59696360  0.10892109  1
  C  C95  1  0.61724444  0.56569174  0.06165341  1
  C  C96  1  0.64207271  0.96310910  0.24688986  1
  O  O97  1  0.50488713  0.55521466  0.00544070  1
  H  H98  1  0.62442258  0.98571474  0.36063119  1
  C  C99  1  0.63838734  0.86345816  0.03416288  1
  Cu  Cu100  1  0.51662241  0.77451803  0.00216097  1
  C  C101  1  0.70416687  0.99832460  0.01949187  1
  O  O102  1  0.72542589  0.94781338  0.73135259  1
  C  C103  1  0.68951500  0.89539342  0.79693878  1
  O  O104  1  0.66472906  0.83199825  0.72532964  1
  O  O105  1  0.53558995  0.89450217  0.69971044  1
  Cu  Cu106  1  0.60804560  0.85131735  0.56387773  1
  O  O107  1  0.55883571  0.67600880  0.94277968  1
  C  C108  1  0.67799947  0.92232736  0.95710554  1
  H  H109  1  0.62642130  0.79938552  0.98016013  1
  C  C110  1  0.55653417  0.59944317  0.99734937  1
  H  H111  1  0.67047255  0.67554232  0.96744130  1
  O  O112  1  0.92033344  0.44175436  0.16691946  1
  O  O113  1  0.93644490  0.25584569  0.31409779  1
  O  O114  1  0.85346706  0.17452580  0.28143591  1
  C  C115  1  0.91133742  0.20045385  0.24252859  1
  H  H116  1  0.86203662  0.07261343  0.08499156  1
  C  C117  1  0.94868406  0.15176517  0.11671682  1
  Cu  Cu118  1  0.78118759  0.24172886  0.27151804  1
  C  C119  1  0.97438707  0.46539628  0.17326009  1
  C  C120  1  0.94816892  0.00622480  0.39966486  1
  C  C121  1  0.91225125  0.08616794  0.04799847  1
  H  H122  1  0.78413072  0.49920191  0.23501184  1
  O  O123  1  0.98225964  0.35431816  0.76229631  1
  H  H124  1  0.95454672  0.34421128  0.84732563  1
  C  C125  1  0.94789536  0.04427167  0.93631113  1
  C  C126  1  0.96178871  0.44782223  0.72705641  1
  O  O127  1  0.91823034  0.47627260  0.80044412  1
  C  C128  1  0.99601532  0.48945782  0.60187601  1
  H  H129  1  0.93112551  0.04276148  0.50171051  1
  H  H130  1  0.90600865  0.84624488  0.14022742  1
  C  C131  1  0.94754869  0.58947241  0.34741628  1
  O  O132  1  0.82999145  0.65820023  0.20327001  1
  O  O133  1  0.80583565  0.87374999  0.33261218  1
  H  H134  1  0.89588220  0.57780775  0.32108378  1
  C  C135  1  0.90972024  0.94292959  0.32740098  1
  C  C136  1  0.93364833  0.89554259  0.20588521  1
  C  C137  1  0.84497781  0.92846601  0.38526247  1
  Cu  Cu138  1  0.82286812  0.75898233  0.33000315  1
  C  C139  1  0.78772471  0.66037743  0.09220121  1
  C  C140  1  0.97025440  0.65462466  0.45194880  1
  C  C141  1  0.99673361  0.91234286  0.15640831  1
  C  C142  1  0.99461132  0.54050292  0.27899488  1
  O  O143  1  0.86776858  0.69839029  0.49685922  1
  C  C144  1  0.92486401  0.72066106  0.49448213  1
  O  O145  1  0.82758575  0.97537133  0.49759571  1
  C  C146  1  0.91774225  0.97291219  0.85051093  1
  Cu  Cu147  1  0.80710765  0.94209660  0.68974846  1
  O  O148  1  0.94584583  0.79248163  0.55072039  1
  O  O149  1  0.95114707  0.93083203  0.75878552  1
  Cu  Cu150  1  0.96835974  0.80959876  0.75386449  1
  O  O151  1  0.85828841  0.96149966  0.86358832  1
  H  H152  1  0.95752136  0.59256150  0.70105046  1
  C  C153  1  0.99238937  0.59010917  0.60169481  1
  O  O154  1  0.99419666  0.80525032  0.96045488  1
  O  O155  1  0.78363723  0.71576010  0.99749102  1
