# generated using pymatgen
data_CuHC4O3
_symmetry_space_group_name_H-M   'P 1'
_cell_length_a   28.16295892
_cell_length_b   20.31554621
_cell_length_c   13.12581468
_cell_angle_alpha   90.00000000
_cell_angle_beta   90.00000000
_cell_angle_gamma   90.00000000
_symmetry_Int_Tables_number   1
_chemical_formula_structural   CuHC4O3
_chemical_formula_sum   'Cu36 H36 C144 O108'
_cell_volume   7509.88096977
_cell_formula_units_Z   36
loop_
 _symmetry_equiv_pos_site_id
 _symmetry_equiv_pos_as_xyz
  1  'x, y, z'
loop_
 _atom_site_type_symbol
 _atom_site_label
 _atom_site_symmetry_multiplicity
 _atom_site_fract_x
 _atom_site_fract_y
 _atom_site_fract_z
 _atom_site_occupancy
  H  H0  1  0.09139252  0.03901043  0.10303827  1
  O  O1  1  0.22707421  0.19497188  0.31926444  1
  O  O2  1  0.15601557  0.12068442  0.13677338  1
  O  O3  1  0.21620187  0.32167964  0.16680223  1
  C  C4  1  0.15164521  0.13415115  0.04320387  1
  H  H5  1  0.23548203  0.40687221  0.30886755  1
  Cu  Cu6  1  0.23524255  0.22276887  0.45383616  1
  Cu  Cu7  1  0.19820144  0.25438413  0.07866660  1
  Cu  Cu8  1  0.17045081  0.02997329  0.16456695  1
  O  O9  1  0.16880107  0.22779846  0.48010858  1
  O  O10  1  0.23776646  0.04697635  0.16975177  1
  H  H11  1  0.20399573  0.39307411  0.02724064  1
  C  C12  1  0.23352586  0.49268273  0.01114617  1
  O  O13  1  0.17593303  0.18464387  0.00275952  1
  C  C14  1  0.09309006  0.04846946  0.02168827  1
  H  H15  1  0.10467335  0.16172020  0.52959613  1
  Cu  Cu16  1  0.20938514  0.34613106  0.62776596  1
  O  O17  1  0.19222579  0.43514659  0.62588423  1
  O  O18  1  0.12176357  0.36401108  0.81608632  1
  C  C19  1  0.11105155  0.11215820  0.87344065  1
  O  O20  1  0.08133533  0.37220256  0.60606038  1
  C  C21  1  0.14506077  0.27408562  0.52316607  1
  C  C22  1  0.03784242  0.17633530  0.60335189  1
  O  O23  1  0.16215684  0.31816550  0.94226565  1
  C  C24  1  0.06876449  0.31208255  0.61074055  1
  Cu  Cu25  1  0.15315591  0.23631725  0.89413634  1
  O  O26  1  0.12208578  0.49370204  0.78762278  1
  C  C27  1  0.08326376  0.19676909  0.56558229  1
  C  C28  1  0.09953611  0.26052596  0.56804246  1
  C  C29  1  0.11916128  0.09943586  0.98246595  1
  O  O30  1  0.24726788  0.24168529  0.59131405  1
  H  H31  1  0.06861100  0.08610015  0.73620594  1
  C  C32  1  0.20349210  0.43765472  0.98584096  1
  O  O33  1  0.16636539  0.32903587  0.52731103  1
  Cu  Cu34  1  0.10930670  0.42228548  0.70173703  1
  O  O35  1  0.02013065  0.11811211  0.59716703  1
  C  C36  1  0.15715071  0.49195692  0.84924087  1
  C  C37  1  0.17095575  0.43412684  0.90762209  1
  C  C38  1  0.15025725  0.36913554  0.88979317  1
  O  O39  1  0.13718666  0.15719024  0.83683733  1
  C  C40  1  0.07765186  0.07435864  0.81576112  1
  C  C41  1  0.22268629  0.48047243  0.62627679  1
  C  C42  1  0.02182411  0.29298491  0.63128072  1
  C  C43  1  0.00424388  0.22795187  0.62848232  1
  Cu  Cu44  1  0.23244580  0.08548224  0.72918755  1
  O  O45  1  0.01010951  0.00932640  0.70208809  1
  O  O46  1  0.24275555  0.06015058  0.59761504  1
  C  C47  1  0.05147448  0.02382170  0.85641541  1
  O  O48  1  0.20981850  0.00270877  0.76273081  1
  C  C49  1  0.05938444  0.00914118  0.96648805  1
  C  C50  1  0.14073087  0.79358603  0.04282459  1
  O  O51  1  0.17683534  0.94431866  0.19555488  1
  H  H52  1  0.08117915  0.78319604  0.14309734  1
  C  C53  1  0.14487803  0.73661048  0.20827174  1
  O  O54  1  0.19965836  0.64235186  0.30866262  1
  Cu  Cu55  1  0.16410558  0.69646050  0.39984216  1
  C  C56  1  0.21245178  0.73895933  0.09124977  1
  C  C57  1  0.19128065  0.71340456  0.17882184  1
  O  O58  1  0.12867257  0.72275653  0.29396884  1
  C  C59  1  0.11969468  0.77284226  0.13122957  1
  C  C60  1  0.18594552  0.92074026  0.28264867  1
  C  C61  1  0.19110183  0.90208594  0.36866262  1
  C  C62  1  0.21879628  0.66724851  0.23509562  1
  C  C63  1  0.20047067  0.87925270  0.47165804  1
  C  C64  1  0.19151174  0.78227538  0.02113631  1
  H  H65  1  0.24947292  0.72183125  0.07288162  1
  O  O66  1  0.03866737  0.96011639  0.00299537  1
  C  C67  1  0.21732205  0.54681449  0.58923550  1
  H  H68  1  0.18413091  0.56293509  0.55990032  1
  C  C69  1  0.18654744  0.54668979  0.87180946  1
  C  C70  1  0.22198286  0.54840473  0.94659281  1
  Cu  Cu71  1  0.18446794  0.86971703  0.84424316  1
  H  H72  1  0.21310596  0.70286525  0.70783246  1
  O  O73  1  0.20892906  0.80524934  0.93878067  1
  O  O74  1  0.12436937  0.83880838  0.88263163  1
  Cu  Cu75  1  0.02919485  0.88658477  0.91759083  1
  C  C76  1  0.23608889  0.95481611  0.74139040  1
  H  H77  1  0.18113588  0.59230314  0.82460732  1
  C  C78  1  0.23868215  0.65694536  0.54332165  1
  O  O79  1  0.06535302  0.83277625  0.99570349  1
  C  C80  1  0.01722239  0.99080566  0.79587993  1
  C  C81  1  0.15996565  0.85370476  0.52353145  1
  O  O82  1  0.23942398  0.73245050  0.72929322  1
  O  O83  1  0.23596460  0.65696175  0.89102657  1
  O  O84  1  0.19490044  0.66445644  0.51372343  1
  C  C85  1  0.10792966  0.82272929  0.96960411  1
  O  O86  1  0.13350040  0.82804541  0.57784655  1
  H  H87  1  0.23690455  0.87892558  0.50144527  1
  O  O88  1  0.24239097  0.90605365  0.80255437  1
  C  C89  1  0.24661262  0.61105959  0.95511221  1
  C  C90  1  0.29496720  0.28860432  0.03366251  1
  C  C91  1  0.34497135  0.14664007  0.20205666  1
  C  C92  1  0.29847586  0.13345944  0.23548315  1
  O  O93  1  0.26477357  0.49483131  0.08104028  1
  Cu  Cu94  1  0.41017753  0.42528904  0.40951598  1
  C  C95  1  0.47465713  0.31443065  0.45024608  1
  C  C96  1  0.29959230  0.32613944  0.12784896  1
  C  C97  1  0.31166031  0.41236397  0.29005763  1
  H  H98  1  0.37044798  0.13738092  0.37952449  1
  O  O99  1  0.39595903  0.39528408  0.27954824  1
  C  C100  1  0.35412318  0.38216065  0.24819750  1
  O  O101  1  0.30223573  0.21702701  0.43769267  1
  H  H102  1  0.37428166  0.32595184  0.11634596  1
  O  O103  1  0.27424137  0.48863643  0.41027702  1
  C  C104  1  0.31500639  0.46129831  0.36913604  1
  C  C105  1  0.34414793  0.34358377  0.15877523  1
  O  O106  1  0.35570064  0.47683351  0.39873316  1
  O  O107  1  0.43266809  0.06091847  0.38275494  1
  O  O108  1  0.38296375  0.16685819  0.18504959  1
  H  H109  1  0.29510963  0.04089209  0.43387512  1
  H  H110  1  0.48090673  0.34298233  0.26500004  1
  Cu  Cu111  1  0.41446584  0.02455008  0.26601862  1
  O  O112  1  0.46863167  0.37294560  0.41876928  1
  C  C113  1  0.49113311  0.26972942  0.37334165  1
  C  C114  1  0.29632119  0.00172631  0.48939530  1
  C  C115  1  0.26600846  0.39101831  0.26511605  1
  C  C116  1  0.48923388  0.29025360  0.27159649  1
  C  C117  1  0.36006632  0.13240557  0.46131999  1
  C  C118  1  0.42351454  0.05184936  0.47569167  1
  C  C119  1  0.25232951  0.15655610  0.27100652  1
  C  C120  1  0.25588835  0.09673509  0.21155501  1
  C  C121  1  0.25827148  0.34268437  0.19174173  1
  C  C122  1  0.49861532  0.25374001  0.18066444  1
  O  O123  1  0.49931926  0.27395064  0.08913350  1
  O  O124  1  0.35007404  0.00283731  0.31221151  1
  C  C125  1  0.32272618  0.17477426  0.49454892  1
  H  H126  1  0.32751698  0.11573374  0.74064966  1
  O  O127  1  0.32212367  0.40229401  0.76883188  1
  O  O128  1  0.33272513  0.28441786  0.98109556  1
  C  C129  1  0.26950032  0.19617473  0.64342126  1
  C  C130  1  0.33652727  0.12078893  0.65749116  1
  C  C131  1  0.31092437  0.16621938  0.60109829  1
  C  C132  1  0.28144754  0.41045106  0.72322059  1
  Cu  Cu133  1  0.32948820  0.33909074  0.87063025  1
  O  O134  1  0.39886954  0.04166570  0.68721974  1
  C  C135  1  0.37590721  0.08143240  0.63037669  1
  O  O136  1  0.25059883  0.36671245  0.72805108  1
  C  C137  1  0.26403153  0.00915386  0.57569985  1
  O  O138  1  0.47559696  0.30190574  0.54484317  1
  C  C139  1  0.26903350  0.47344346  0.67709596  1
  C  C140  1  0.38529483  0.09005458  0.52127036  1
  O  O141  1  0.25255297  0.17348890  0.72548520  1
  O  O142  1  0.44981959  0.01419591  0.53071757  1
  Cu  Cu143  1  0.49967865  0.23021052  0.61090334  1
  O  O144  1  0.25568176  0.26804005  0.99994195  1
  C  C145  1  0.32326109  0.94837202  0.47149121  1
  C  C146  1  0.34827379  0.95018210  0.37374013  1
  C  C147  1  0.42987930  0.94413158  0.10647841  1
  O  O148  1  0.36927063  0.90025274  0.34846627  1
  O  O149  1  0.33080624  0.93960337  0.04684312  1
  Cu  Cu150  1  0.26606292  0.57237409  0.14787336  1
  O  O151  1  0.40064856  0.99054928  0.14040053  1
  Cu  Cu152  1  0.39515582  0.83454586  0.42181730  1
  O  O153  1  0.39592738  0.68027074  0.48762234  1
  Cu  Cu154  1  0.33900617  0.97196425  0.17266103  1
  O  O155  1  0.47137438  0.94231297  0.13388534  1
  O  O156  1  0.26296638  0.64764973  0.21078379  1
  C  C157  1  0.41041583  0.89535595  0.04027046  1
  C  C158  1  0.36013702  0.89828449  0.00898327  1
  O  O159  1  0.27418742  0.62216444  0.02836735  1
  H  H160  1  0.48066311  0.85746261  0.01943722  1
  H  H161  1  0.28685634  0.51960038  0.45577119  1
  Cu  Cu162  1  0.39061403  0.60020709  0.55284645  1
  C  C163  1  0.30443750  0.51923950  0.67181651  1
  O  O164  1  0.26857848  0.70434508  0.54236959  1
  C  C165  1  0.29382900  0.90088660  0.63518140  1
  O  O166  1  0.35001437  0.84613912  0.53437335  1
  C  C167  1  0.29969775  0.58355401  0.62990579  1
  O  O168  1  0.32236365  0.77102177  0.77838458  1
  H  H169  1  0.28785348  0.86205136  0.69209417  1
  C  C170  1  0.26502535  0.95561529  0.64944960  1
  C  C171  1  0.36702436  0.76770855  0.80458653  1
  Cu  Cu172  1  0.45053820  0.68508759  0.82113572  1
  C  C173  1  0.35194276  0.85492046  0.92586791  1
  C  C174  1  0.46431013  0.55244078  0.75836481  1
  C  C175  1  0.32344791  0.89558822  0.54930020  1
  Cu  Cu176  1  0.43805780  0.97242306  0.65637674  1
  Cu  Cu177  1  0.27550435  0.71769884  0.84279111  1
  O  O178  1  0.39301740  0.72451605  0.76738828  1
  Cu  Cu179  1  0.29665916  0.73631959  0.66007049  1
  C  C180  1  0.49339503  0.51059019  0.74799450  1
  O  O181  1  0.46584809  0.76879077  0.87443068  1
  O  O182  1  0.33266666  0.62297646  0.61399864  1
  C  C183  1  0.38451867  0.80903919  0.88578370  1
  H  H184  1  0.31750132  0.85211195  0.89430260  1
  O  O185  1  0.47821325  0.89839084  0.65310572  1
  O  O186  1  0.43667498  0.59644793  0.78216367  1
  C  C187  1  0.43374496  0.80664838  0.91454204  1
  O  O188  1  0.43095341  0.77754882  0.50115382  1
  O  O189  1  0.45027351  0.57617643  0.50515459  1
  C  C190  1  0.48631830  0.61129580  0.52103941  1
  C  C191  1  0.47815361  0.68349869  0.51915110  1
  C  C192  1  0.25152603  0.59516847  0.58837513  1
  C  C193  1  0.43257329  0.71408175  0.50384453  1
  C  C194  1  0.44213019  0.85267055  0.99418031  1
  H  H195  1  0.33755056  0.50432290  0.70448166  1
  C  C196  1  0.62745039  0.31250721  0.06193510  1
  O  O197  1  0.66430797  0.19483422  0.24522550  1
  C  C198  1  0.59851527  0.36813350  0.04676274  1
  C  C199  1  0.58561532  0.37326493  0.23201819  1
  Cu  Cu200  1  0.62646286  0.20091042  0.35249782  1
  C  C201  1  0.63567316  0.28568086  0.15829107  1
  C  C202  1  0.61373687  0.31501576  0.24731279  1
  O  O203  1  0.52956608  0.48156295  0.21745743  1
  C  C204  1  0.66150682  0.22508719  0.15964464  1
  H  H205  1  0.57317525  0.39877378  0.30343157  1
  Cu  Cu206  1  0.66486146  0.13325272  0.01288083  1
  C  C207  1  0.57855638  0.39791518  0.13611371  1
  C  C208  1  0.66288832  0.11540020  0.46080223  1
  O  O209  1  0.62071891  0.28724688  0.33319781  1
  O  O210  1  0.63190093  0.11018504  0.39138033  1
  O  O211  1  0.68352546  0.20534770  0.08236113  1
  O  O212  1  0.51290077  0.07440366  0.15386773  1
  O  O213  1  0.70816591  0.11552576  0.44055224  1
  C  C214  1  0.54804730  0.45798481  0.13657114  1
  H  H215  1  0.50991324  0.10900030  0.31315169  1
  C  C216  1  0.50749300  0.13373335  0.12903300  1
  O  O217  1  0.50027137  0.14883208  0.03825544  1
  O  O218  1  0.53805780  0.48661123  0.05506486  1
  C  C219  1  0.50788468  0.16255812  0.30825768  1
  C  C220  1  0.50436201  0.18566019  0.20861321  1
  C  C221  1  0.50302315  0.20093311  0.39814825  1
  Cu  Cu222  1  0.74674666  0.17619160  0.48851026  1
  O  O223  1  0.51046723  0.18085399  0.48657570  1
  O  O224  1  0.65474895  0.04875853  0.95421422  1
  O  O225  1  0.55830079  0.17665525  0.88461780  1
  C  C226  1  0.57623703  0.15566206  0.67190308  1
  O  O227  1  0.63592780  0.18630138  0.91328712  1
  O  O228  1  0.66881988  0.41238433  0.67623271  1
  O  O229  1  0.70973587  0.45095417  0.98276447  1
  C  C230  1  0.59989467  0.14274485  0.57846208  1
  O  O231  1  0.53241868  0.16603320  0.68133486  1
  C  C232  1  0.70524143  0.38445367  0.71045882  1
  H  H233  1  0.68600195  0.17754460  0.79700683  1
  C  C234  1  0.60140483  0.17141010  0.85586893  1
  C  C235  1  0.66233094  0.16290359  0.73524892  1
  C  C236  1  0.68268076  0.14313069  0.64207065  1
  C  C237  1  0.64788658  0.13565256  0.55861423  1
  C  C238  1  0.61331662  0.16393269  0.75050153  1
  C  C239  1  0.72014237  0.39846535  0.81432848  1
  O  O240  1  0.58899075  0.39445365  0.95962647  1
  O  O241  1  0.72723508  0.14345651  0.61862441  1
  H  H242  1  0.57492011  0.13198993  0.51578799  1
  C  C243  1  0.69872611  0.44225686  0.88741558  1
  O  O244  1  0.66526725  0.47664535  0.84561493  1
  H  H245  1  0.63968239  0.03627429  0.78574332  1
  O  O246  1  0.56112071  0.45472848  0.77821316  1
  Cu  Cu247  1  0.55784916  0.47465679  0.92330935  1
  C  C248  1  0.61986942  0.00999067  0.97124968  1
  H  H249  1  0.51678332  0.41330865  0.67743522  1
  C  C250  1  0.52430890  0.45938920  0.72643539  1
  H  H251  1  0.72791157  0.32762219  0.57158389  1
  C  C252  1  0.73452585  0.34039208  0.65137258  1
  Cu  Cu253  1  0.52945790  0.22269902  0.98311791  1
  C  C254  1  0.60811150  0.00314797  0.78820722  1
  Cu  Cu255  1  0.64050114  0.49265228  0.71833664  1
  H  H256  1  0.64650416  0.28987781  0.99791154  1
  C  C257  1  0.60800343  0.87217740  0.30022790  1
  C  C258  1  0.64058304  0.78431291  0.17332253  1
  C  C259  1  0.59092134  0.68719588  0.28776626  1
  C  C260  1  0.63984708  0.59968356  0.19253033  1
  C  C261  1  0.58793828  0.75781341  0.31554416  1
  H  H262  1  0.56607592  0.77462239  0.38271210  1
  C  C263  1  0.62786124  0.66753090  0.21988776  1
  O  O264  1  0.56118564  0.64527840  0.31682259  1
  O  O265  1  0.65577552  0.83098727  0.11831564  1
  C  C266  1  0.64890272  0.71739443  0.16143648  1
  O  O267  1  0.62559192  0.92095348  0.25584696  1
  O  O268  1  0.67698349  0.59135580  0.13904091  1
  O  O269  1  0.57969365  0.88147661  0.37388021  1
  C  C270  1  0.61147816  0.80404861  0.26297697  1
  Cu  Cu271  1  0.63719520  0.91692546  0.11062005  1
  O  O272  1  0.61672632  0.55489070  0.23440225  1
  Cu  Cu273  1  0.55002008  0.56154658  0.27072882  1
  H  H274  1  0.67311361  0.70269148  0.09824974  1
  Cu  Cu275  1  0.69263592  0.52823431  0.05313048  1
  Cu  Cu276  1  0.59334049  0.93572131  0.49499169  1
  O  O277  1  0.61433294  0.99379064  0.06617179  1
  Cu  Cu278  1  0.52293794  0.99770741  0.07796562  1
  C  C279  1  0.68664962  0.62429846  0.91155689  1
  O  O280  1  0.53669901  0.89446508  0.54614270  1
  C  C281  1  0.53207872  0.58648562  0.54658118  1
  O  O282  1  0.54091114  0.92957882  0.99430605  1
  C  C283  1  0.53232327  0.91596225  0.81197097  1
  C  C284  1  0.56497530  0.69732946  0.54383142  1
  C  C285  1  0.57119190  0.62671407  0.55965935  1
  C  C286  1  0.58872192  0.63662440  0.88466205  1
  C  C287  1  0.51768985  0.72163723  0.53135598  1
  C  C288  1  0.63860423  0.64465419  0.88546503  1
  C  C289  1  0.54865198  0.93305249  0.71786559  1
  H  H290  1  0.53865212  0.53351507  0.56335938  1
  C  C291  1  0.61684003  0.59623683  0.58268175  1
  O  O292  1  0.65418580  0.62690214  0.60136881  1
  O  O293  1  0.54641141  0.62678695  0.88706783  1
  Cu  Cu294  1  0.65056523  0.71231354  0.64435729  1
  C  C295  1  0.55399338  0.94147783  0.90205588  1
  O  O296  1  0.69241159  0.70178931  0.75223327  1
  C  C297  1  0.59458057  0.98466016  0.88619241  1
  C  C298  1  0.67880698  0.66927765  0.82757223  1
  O  O299  1  0.60243392  0.73170901  0.55592329  1
  O  O300  1  0.71311706  0.58949163  0.96233054  1
  C  C301  1  0.58676768  0.97637610  0.69693565  1
  O  O302  1  0.61503020  0.53315267  0.59853615  1
  C  C303  1  0.52163905  0.90084548  0.63238464  1
  H  H304  1  0.51359875  0.77642655  0.53088690  1
  O  O305  1  0.59987186  0.98667615  0.60391599  1
  H  H306  1  0.50326241  0.87800969  0.81285601  1
  O  O307  1  0.68348960  0.85779521  0.57849624  1
  C  C308  1  0.70308907  0.89770320  0.55007415  1
  C  C309  1  0.95587048  0.22198001  0.65751782  1
  Cu  Cu310  1  0.87555575  0.27592157  0.74704377  1
  O  O311  1  0.93966783  0.16325786  0.66651351  1
  C  C312  1  0.77191269  0.30594307  0.69219690  1
  O  O313  1  0.83163493  0.22926609  0.65564592  1
  O  O314  1  0.77682577  0.24565954  0.53864979  1
  C  C315  1  0.78504156  0.31616912  0.79802402  1
  C  C316  1  0.79497421  0.25802241  0.62731025  1
  O  O317  1  0.82179312  0.28497785  0.82848508  1
  O  O318  1  0.92964457  0.27278917  0.67628999  1
  Cu  Cu319  1  0.97120598  0.08564859  0.67908871  1
  H  H320  1  0.77003992  0.37180404  0.93365882  1
  C  C321  1  0.75939275  0.36489751  0.85437391  1
  H  H322  1  0.99881892  0.33284495  0.65266098  1
  O  O323  1  0.99400542  0.94297436  0.83374855  1
