# generated using pymatgen
data_ZnHC4O3
_symmetry_space_group_name_H-M   'P 1'
_cell_length_a   23.64308996
_cell_length_b   21.99579170
_cell_length_c   10.88142685
_cell_angle_alpha   90.00000000
_cell_angle_beta   90.00000000
_cell_angle_gamma   90.00000000
_symmetry_Int_Tables_number   1
_chemical_formula_structural   ZnHC4O3
_chemical_formula_sum   'Zn36 H36 C144 O108'
_cell_volume   5658.86951237
_cell_formula_units_Z   36
loop_
 _symmetry_equiv_pos_site_id
 _symmetry_equiv_pos_as_xyz
  1  'x, y, z'
loop_
 _atom_site_type_symbol
 _atom_site_label
 _atom_site_symmetry_multiplicity
 _atom_site_fract_x
 _atom_site_fract_y
 _atom_site_fract_z
 _atom_site_occupancy
  H  H0  1  0.14720533  0.29561355  0.25294214  1
  C  C1  1  0.23542711  0.31937607  0.17323256  1
  O  O2  1  0.03941591  0.27265185  0.05672027  1
  O  O3  1  0.06933027  0.23397147  0.37104102  1
  O  O4  1  0.23715073  0.34593183  0.07766550  1
  C  C5  1  0.22140276  0.16362802  0.25620992  1
  C  C6  1  0.04083828  0.14064033  0.45310909  1
  C  C7  1  0.21443990  0.22547431  0.28914353  1
  Zn  Zn8  1  0.14948427  0.42449840  0.09499990  1
  O  O9  1  0.10644138  0.33975711  0.06349835  1
  C  C10  1  0.18721627  0.27286986  0.21482809  1
  O  O11  1  0.01183829  0.15242693  0.23974800  1
  C  C12  1  0.06730647  0.20067260  0.46276997  1
  O  O13  1  0.11816908  0.43983571  0.28082285  1
  Zn  Zn14  1  0.18230964  0.20322508  0.10109379  1
  C  C15  1  0.05698084  0.32519565  0.03684433  1
  C  C16  1  0.24006655  0.25020225  0.40712017  1
  C  C17  1  0.11468515  0.49092705  0.33265500  1
  O  O18  1  0.24031017  0.11522049  0.27625152  1
  C  C19  1  0.01297197  0.11970840  0.33582067  1
  O  O20  1  0.09563336  0.05177759  0.03516320  1
  O  O21  1  0.20957530  0.48566635  0.15408071  1
  O  O22  1  0.23230568  0.21303867  0.49267468  1
  Zn  Zn23  1  0.00096437  0.25163345  0.23465501  1
  C  C24  1  0.09546634  0.00226331  0.09374481  1
  O  O25  1  0.10787794  0.39544705  0.66052675  1
  C  C26  1  0.16013050  0.39526484  0.66769644  1
  O  O27  1  0.18888145  0.34945182  0.63074952  1
  C  C28  1  0.12504508  0.19197467  0.78759143  1
  H  H29  1  0.10787590  0.26019056  0.59422373  1
  Zn  Zn30  1  0.14285854  0.06410734  0.86307226  1
  O  O31  1  0.12624759  0.16190852  0.88611349  1
  C  C32  1  0.19619861  0.44384320  0.72737849  1
  O  O33  1  0.14846121  0.24330158  0.78368484  1
  O  O34  1  0.06331271  0.07873766  0.75452771  1
  C  C35  1  0.08968115  0.21543133  0.58415872  1
  Zn  Zn36  1  0.07056511  0.47833951  0.59791729  1
  C  C37  1  0.09076902  0.17321603  0.67556867  1
  C  C38  1  0.06365261  0.11583322  0.66400107  1
  O  O39  1  0.21836847  0.07045423  0.75116098  1
  Zn  Zn40  1  0.22066624  0.25998347  0.67997560  1
  C  C41  1  0.04256441  0.09849421  0.54455920  1
  O  O42  1  0.07549114  0.45966573  0.99083308  1
  C  C43  1  0.02824028  0.43444458  0.97412309  1
  C  C44  1  0.23679199  0.03377918  0.67447094  1
  H  H45  1  0.02746112  0.05127819  0.52674429  1
  C  C46  1  0.24776619  0.42689025  0.76776824  1
  C  C47  1  0.01398230  0.37175562  0.99343026  1
  C  C48  1  0.15605927  0.53748810  0.30278460  1
  C  C49  1  0.01318054  0.91412241  0.09167055  1
  C  C50  1  0.24039436  0.58517669  0.21421739  1
  O  O51  1  0.17916940  0.69014652  0.43505683  1
  C  C52  1  0.20462843  0.53278795  0.22064908  1
  C  C53  1  0.15125521  0.58910698  0.37555976  1
  C  C54  1  0.23085462  0.63596816  0.27874646  1
  C  C55  1  0.11028859  0.98543933  0.23058116  1
  C  C56  1  0.18725326  0.64226111  0.37367368  1
  Zn  Zn57  1  0.02298038  0.99391708  0.19788713  1
  C  C58  1  0.06307711  0.94090134  0.04223681  1
  H  H59  1  0.24291883  0.94604320  0.35153731  1
  H  H60  1  0.11540977  0.58763434  0.44151144  1
  O  O61  1  0.07563533  0.50036325  0.40715249  1
  O  O62  1  0.13721869  0.99340080  0.31839908  1
  H  H63  1  0.21897371  0.85500658  0.92081413  1
  H  H64  1  0.19943471  0.59103915  0.83679344  1
  C  C65  1  0.24809049  0.84288702  0.75234621  1
  C  C66  1  0.21360568  0.54348420  0.81957328  1
  C  C67  1  0.22915030  0.88009518  0.84158467  1
  O  O68  1  0.19747204  0.98359243  0.89016454  1
  C  C69  1  0.21987652  0.94598647  0.82213142  1
  O  O70  1  0.12908362  0.52437350  0.71198780  1
  C  C71  1  0.23967119  0.96970456  0.70465495  1
  O  O72  1  0.24210985  0.75819898  0.89066772  1
  Zn  Zn73  1  0.24121887  0.74801968  0.50783797  1
  C  C74  1  0.17638645  0.50574363  0.74545063  1
  H  H75  1  0.08816521  0.91920169  0.96853246  1
  C  C76  1  0.31161085  0.38750299  0.28181350  1
  Zn  Zn77  1  0.28383145  0.12101773  0.47171537  1
  O  O78  1  0.45748454  0.37167389  0.25917365  1
  C  C79  1  0.26716675  0.30719412  0.38990354  1
  O  O80  1  0.33073339  0.40281115  0.38606353  1
  C  C81  1  0.45332141  0.22622892  0.03527389  1
  O  O82  1  0.33106329  0.41552233  0.18813697  1
  O  O83  1  0.32829313  0.04951437  0.35045086  1
  C  C84  1  0.26925601  0.33586642  0.27686369  1
  Zn  Zn85  1  0.41159748  0.44351992  0.36539442  1
  H  H86  1  0.28876328  0.32332791  0.46930686  1
  C  C87  1  0.45873275  0.16548421  0.01135463  1
  H  H88  1  0.48741073  0.24733575  0.08965982  1
  Zn  Zn89  1  0.49478367  0.36012198  0.03775821  1
  Zn  Zn90  1  0.33725536  0.36904965  0.00775485  1
  C  C91  1  0.48481630  0.37468959  0.53907469  1
  H  H92  1  0.48260473  0.36136672  0.74051367  1
  C  C93  1  0.32116539  0.25894450  0.83721019  1
  Zn  Zn94  1  0.41969068  0.05774014  0.52000850  1
  H  H95  1  0.35113013  0.14298976  0.80706593  1
  Zn  Zn96  1  0.46146221  0.22018785  0.62940852  1
  C  C97  1  0.38027978  0.16910119  0.87471423  1
  C  C98  1  0.37183982  0.22931523  0.89430728  1
  O  O99  1  0.28485585  0.22568433  0.77834974  1
  C  C100  1  0.42509987  0.13058959  0.92014926  1
  C  C101  1  0.46564061  0.13761340  0.51452938  1
  O  O102  1  0.31426370  0.31531870  0.84273169  1
  O  O103  1  0.33349809  0.44466406  0.86875052  1
  C  C104  1  0.28805337  0.46498014  0.83547454  1
  H  H105  1  0.26225560  0.37988526  0.74973334  1
  O  O106  1  0.43262620  0.07603647  0.90066825  1
  C  C107  1  0.40422125  0.14772052  0.55347009  1
  Zn  Zn108  1  0.49872609  0.01562787  0.94926678  1
  O  O109  1  0.43687690  0.39843833  0.53180195  1
  O  O110  1  0.35829538  0.16747091  0.51286714  1
  O  O111  1  0.25037814  0.04802998  0.56550374  1
  C  C112  1  0.41042530  0.26131379  0.97377839  1
  O  O113  1  0.41143112  0.32033004  0.99047658  1
  C  C114  1  0.43227431  0.64061169  0.40010346  1
  O  O115  1  0.44845804  0.97702996  0.11826270  1
  Zn  Zn116  1  0.33755016  0.97986878  0.14319651  1
  C  C117  1  0.36586999  0.94866146  0.40804559  1
  H  H118  1  0.39670310  0.61570082  0.36086740  1
  C  C119  1  0.42831424  0.86134478  0.07785912  1
  O  O120  1  0.31077058  0.68047876  0.18041611  1
  O  O121  1  0.37528357  0.72588940  0.47368446  1
  C  C122  1  0.46958614  0.87190515  0.16413082  1
  O  O123  1  0.36227986  0.89502106  0.38235970  1
  C  C124  1  0.48356067  0.61295988  0.38215093  1
  C  C125  1  0.44399532  0.75619995  0.09909212  1
  O  O126  1  0.43339947  0.53039505  0.29174329  1
  C  C127  1  0.26387165  0.93021417  0.16270722  1
  C  C128  1  0.44142654  0.68989822  0.06076746  1
  C  C129  1  0.47595774  0.94026955  0.18129962  1
  O  O130  1  0.48043170  0.65577686  0.06907415  1
  C  C131  1  0.40803128  0.80248309  0.04331509  1
  H  H132  1  0.28041019  0.58749678  0.16072356  1
  C  C133  1  0.48066925  0.55462087  0.31254358  1
  H  H134  1  0.41149061  0.90342553  0.03402691  1
  C  C135  1  0.27135084  0.68891087  0.25460414  1
  C  C136  1  0.48642234  0.76449723  0.18044614  1
  C  C137  1  0.27545696  0.95957342  0.28454758  1
  C  C138  1  0.42172876  0.69634875  0.46429040  1
  C  C139  1  0.32455444  0.99465311  0.33745425  1
  O  O140  1  0.26084702  0.73752094  0.30602299  1
  O  O141  1  0.25231893  0.88763327  0.10384668  1
  O  O142  1  0.40111854  0.96752383  0.48253725  1
  Zn  Zn143  1  0.31211899  0.71014828  0.98811138  1
  Zn  Zn144  1  0.42928043  0.59260285  0.88851044  1
  O  O145  1  0.27297546  0.62466940  0.93811961  1
  C  C146  1  0.29705631  0.57221539  0.92561534  1
  O  O147  1  0.37051928  0.78538070  0.96757521  1
  H  H148  1  0.26859546  0.95241918  0.52919323  1
  C  C149  1  0.48114546  0.76990131  0.60326181  1
  O  O150  1  0.43979800  0.80807601  0.62887631  1
  C  C151  1  0.47424185  0.71731489  0.52094269  1
  O  O152  1  0.26267620  0.74055243  0.69978631  1
  O  O153  1  0.27858808  0.82827982  0.54522867  1
  C  C154  1  0.26410376  0.52463930  0.86096042  1
  O  O155  1  0.40229259  0.67504480  0.97543024  1
  O  O156  1  0.34276461  0.56185634  0.97386622  1
  O  O157  1  0.46255712  0.51392472  0.95819101  1
  C  C158  1  0.25607592  0.93024960  0.61348018  1
  C  C159  1  0.26080319  0.86656831  0.62724648  1
  O  O160  1  0.49907359  0.58208305  0.75718576  1
  C  C161  1  0.25005272  0.77806031  0.78578271  1
  Zn  Zn162  1  0.36887878  0.81849463  0.51313653  1
  O  O163  1  0.69671810  0.12562275  0.18193078  1
  Zn  Zn164  1  0.51201749  0.16285606  0.35069956  1
  O  O165  1  0.53954512  0.33455743  0.22185411  1
  O  O166  1  0.61707276  0.04245760  0.43311246  1
  H  H167  1  0.59996042  0.32445525  0.38000300  1
  O  O168  1  0.74031220  0.15365977  0.01379851  1
  C  C169  1  0.69749138  0.49725116  0.41468617  1
  Zn  Zn170  1  0.70666550  0.06528351  0.33927239  1
  C  C171  1  0.52086404  0.35439183  0.43548376  1
  C  C172  1  0.73859328  0.14879902  0.13077169  1
  O  O173  1  0.53014432  0.08784804  0.05912902  1
  O  O174  1  0.52986859  0.17173626  0.16364636  1
  O  O175  1  0.64797085  0.48084431  0.39570814  1
  C  C176  1  0.57455473  0.33594940  0.45778406  1
  C  C177  1  0.50895280  0.13871450  0.07721387  1
  C  C178  1  0.50497181  0.35430285  0.29822236  1
  O  O179  1  0.73414471  0.15399822  0.38665480  1
  C  C180  1  0.74493354  0.47749238  0.47898875  1
  O  O181  1  0.52865177  0.44724866  0.00871550  1
  Zn  Zn182  1  0.65818310  0.23234871  0.72176743  1
  C  C183  1  0.56635210  0.15628963  0.63517279  1
  C  C184  1  0.57440195  0.31662360  0.80799858  1
  C  C185  1  0.56267113  0.33616291  0.67533659  1
  O  O186  1  0.62146586  0.29574202  0.83612765  1
  Zn  Zn187  1  0.71848437  0.39188249  0.55249173  1
  O  O188  1  0.55144473  0.14218374  0.73858981  1
  C  C189  1  0.60300203  0.33223913  0.57527751  1
  C  C190  1  0.51117704  0.49049859  0.94228402  1
  O  O191  1  0.74182818  0.19290803  0.72472765  1
  C  C192  1  0.60223818  0.46668268  0.82718608  1
  O  O193  1  0.65576202  0.31912678  0.59273515  1
  H  H194  1  0.60741591  0.42408544  0.87745542  1
  C  C195  1  0.50851698  0.35749574  0.65638377  1
  Zn  Zn196  1  0.61937641  0.03270351  0.70196582  1
  O  O197  1  0.69307486  0.45424175  0.70921101  1
  O  O198  1  0.53298147  0.31843143  0.87976424  1
  C  C199  1  0.52135172  0.16629572  0.53543384  1
  O  O200  1  0.61680677  0.17007567  0.60783861  1
  C  C201  1  0.65899998  0.49200261  0.74943671  1
  C  C202  1  0.59888590  0.00506837  0.50364377  1
  O  O203  1  0.70812172  0.56461321  0.35438819  1
  O  O204  1  0.58511336  0.61307803  0.42255539  1
  O  O205  1  0.53430779  0.83342956  0.31624746  1
  C  C206  1  0.52541601  0.69053625  0.49777207  1
  C  C207  1  0.71710466  0.90388181  0.35217488  1
  O  O208  1  0.64785730  0.89376994  0.19729801  1
  C  C209  1  0.68236257  0.93039548  0.25365499  1
  Zn  Zn210  1  0.56359887  0.92002250  0.40016567  1
  O  O211  1  0.63121180  0.60536373  0.09992160  1
  Zn  Zn212  1  0.61620566  0.56095799  0.27066193  1
  C  C213  1  0.74984127  0.80204297  0.43753372  1
  H  H214  1  0.69172613  0.82391664  0.28025347  1
  O  O215  1  0.68207684  0.98708665  0.22718617  1
  C  C216  1  0.67570161  0.61726477  0.04328356  1
  O  O217  1  0.52560971  0.52777847  0.28683042  1
  C  C218  1  0.53701890  0.63621957  0.42520817  1
  C  C219  1  0.72014720  0.84182897  0.35445903  1
  O  O220  1  0.71138796  0.57358047  0.02867796  1
  C  C221  1  0.50009072  0.82423350  0.22850497  1
  H  H222  1  0.50584783  0.72301627  0.20920924  1
  H  H223  1  0.74702579  0.56639434  0.38634946  1
  O  O224  1  0.74958977  0.74588210  0.44045712  1
  O  O225  1  0.51452644  0.95733308  0.25052808  1
  Zn  Zn226  1  0.61684170  0.91027475  0.03216873  1
  C  C227  1  0.54697606  0.56324797  0.78545854  1
  O  O228  1  0.68882291  0.89943887  0.88903707  1
  H  H229  1  0.56199719  0.71233133  0.54816406  1
  Zn  Zn230  1  0.55980052  0.85873638  0.71717733  1
  H  H231  1  0.66078692  0.93027439  0.52541636  1
  C  C232  1  0.72868404  0.86369460  0.91018059  1
  C  C233  1  0.70886778  0.80002442  0.94005559  1
  Zn  Zn234  1  0.58165335  0.50180235  0.65347893  1
  C  C235  1  0.62391862  0.95229039  0.56979702  1
  C  C236  1  0.65440763  0.55633868  0.70420078  1
  C  C237  1  0.64971730  0.78171100  0.95432585  1
  C  C238  1  0.56339575  0.95470580  0.78372841  1
  C  C239  1  0.60260622  0.58990335  0.71610793  1
  O  O240  1  0.70403182  0.64410422  0.64035667  1
  O  O241  1  0.52977681  0.77969602  0.64514851  1
  C  C242  1  0.70647993  0.59386674  0.69432461  1
  H  H243  1  0.60170688  0.64056313  0.70367320  1
  C  C244  1  0.60927760  0.93497473  0.69630189  1
  O  O245  1  0.56474460  0.95448723  0.93770759  1
  O  O246  1  0.61028404  0.82083159  0.94351481  1
  C  C247  1  0.74714772  0.69746732  0.96540928  1
  O  O248  1  0.51395718  0.97289375  0.76246299  1
  C  C249  1  0.55350078  0.50297440  0.84581903  1
  C  C250  1  0.68793868  0.67785383  0.99485574  1
  H  H251  1  0.59895686  0.70451729  0.99669786  1
  C  C252  1  0.64324032  0.71817577  0.98315354  1
  C  C253  1  0.90470037  0.27686705  0.41512944  1
  C  C254  1  0.86418064  0.24246931  0.33660726  1
  C  C255  1  0.87305826  0.23697670  0.20490221  1
  C  C256  1  0.82082971  0.21482414  0.39401933  1
  H  H257  1  0.82618283  0.21251437  0.03971120  1
  C  C258  1  0.78258159  0.18136411  0.20532240  1
  O  O259  1  0.91866506  0.25554998  0.15798247  1
  C  C260  1  0.82594406  0.21004190  0.14370217  1
  C  C261  1  0.77637056  0.17892840  0.33781610  1
  O  O262  1  0.94701920  0.30219004  0.37069087  1
  H  H263  1  0.81591419  0.21988077  0.49522755  1
  O  O264  1  0.98947964  0.06918658  0.34054236  1
  O  O265  1  0.91485510  0.01774365  0.05775689  1
  H  H266  1  0.80156989  0.09782600  0.59604754  1
  C  C267  1  0.84123715  0.16848186  0.71859446  1
  Zn  Zn268  1  0.97612796  0.06434327  0.87127773  1
  C  C269  1  0.79171591  0.21252953  0.71582726  1
  O  O270  1  0.79995170  0.26784843  0.70935332  1
  O  O271  1  0.91862624  0.23840363  0.79599869  1
  C  C272  1  0.84584709  0.04867226  0.76321968  1
  O  O273  1  0.82199744  0.39070464  0.61024937  1
  O  O274  1  0.94472357  0.40337784  0.67124815  1
  H  H275  1  0.95520900  0.30024709  0.97735488  1
  C  C276  1  0.94105048  0.45689016  0.64285231  1
  Zn  Zn277  1  0.88167490  0.32351347  0.69165846  1
  C  C278  1  0.90957719  0.01630597  0.94951705  1
  C  C279  1  0.83462283  0.10637194  0.66727455  1
  C  C280  1  0.92223979  0.44872550  0.93508075  1
  C  C281  1  0.89363080  0.18966636  0.79250988  1
  Zn  Zn282  1  0.79759552  0.10861033  0.89093694  1
  C  C283  1  0.88784851  0.06848629  0.86709782  1
  C  C284  1  0.90868557  0.13186232  0.88419445  1
  C  C285  1  0.91264342  0.38368904  0.92777609  1
  O  O286  1  0.86792589  0.36008177  0.88723899  1
  H  H287  1  0.90381363  0.15221148  0.97532922  1
  C  C288  1  0.88665178  0.47881845  0.59204026  1
  C  C289  1  0.79970910  0.48963112  0.51248226  1
  Zn  Zn290  1  0.91215636  0.15559285  0.60172323  1
  C  C291  1  0.83440098  0.44359450  0.58103198  1
  C  C292  1  0.96060803  0.34898610  0.96890847  1
  O  O293  1  0.98595084  0.49066630  0.63560274  1
  O  O294  1  0.82823703  0.49156177  0.91032518  1
  C  C295  1  0.97548254  0.46905044  0.95982394  1
  O  O296  1  0.90365476  0.27317370  0.53146182  1
  O  O297  1  0.82015364  0.00070488  0.76201654  1
  O  O298  1  0.80755616  0.60014934  0.46363922  1
  C  C299  1  0.82752778  0.54960781  0.49984434  1
  O  O300  1  0.97237439  0.88118078  0.08734168  1
  O  O301  1  0.75450715  0.99398119  0.43314892  1
  C  C302  1  0.75319043  0.93713519  0.43715777  1
  Zn  Zn303  1  0.78064783  0.56923183  0.91418968  1
  O  O304  1  0.77976050  0.87998083  0.92494759  1
  C  C305  1  0.78881858  0.89851852  0.50959554  1
  C  C306  1  0.79024676  0.83632820  0.51357665  1
  H  H307  1  0.91857674  0.92311564  0.98394669  1
  H  H308  1  0.81583605  0.92069474  0.58214839  1
  O  O309  1  0.75180438  0.57021727  0.73612859  1
  O  O310  1  0.91767278  0.94134546  0.90296588  1
  Zn  Zn311  1  0.84513390  0.90579939  0.81298654  1
  O  O312  1  0.83401101  0.75353597  0.62215615  1
  O  O313  1  0.86045815  0.84886509  0.65592313  1
  C  C314  1  0.82856312  0.80812904  0.60449618  1
  O  O315  1  0.89510121  0.55431035  0.90038908  1
  H  H316  1  0.91443799  0.57580506  0.56259691  1
  H  H317  1  0.79355999  0.78546296  0.92537390  1
  C  C318  1  0.88186539  0.53903414  0.55488874  1
  H  H319  1  0.97996599  0.51703633  0.95651820  1
  Zn  Zn320  1  0.77940902  0.67981097  0.55729940  1
  C  C321  1  0.75319872  0.76221343  0.94379990  1
  O  O322  1  0.78991575  0.66557364  0.97001553  1
  C  C323  1  0.88087193  0.50079272  0.91304092  1
