# generated using pymatgen
data_ZnHC4O3
_symmetry_space_group_name_H-M   'P 1'
_cell_length_a   20.36429182
_cell_length_b   28.09005273
_cell_length_c   12.34805307
_cell_angle_alpha   90.00000000
_cell_angle_beta   90.00000000
_cell_angle_gamma   90.00000000
_symmetry_Int_Tables_number   1
_chemical_formula_structural   ZnHC4O3
_chemical_formula_sum   'Zn36 H36 C144 O108'
_cell_volume   7063.50657179
_cell_formula_units_Z   36
loop_
 _symmetry_equiv_pos_site_id
 _symmetry_equiv_pos_as_xyz
  1  'x, y, z'
loop_
 _atom_site_type_symbol
 _atom_site_label
 _atom_site_symmetry_multiplicity
 _atom_site_fract_x
 _atom_site_fract_y
 _atom_site_fract_z
 _atom_site_occupancy
  O  O0  1  0.18229572  0.05286877  0.17534965  1
  C  C1  1  0.21486481  0.01796333  0.16776744  1
  Zn  Zn2  1  0.24008731  0.23917050  0.30811463  1
  H  H3  1  0.10078957  0.00432381  0.23269781  1
  O  O4  1  0.09750157  0.48184761  0.25696564  1
  Zn  Zn5  1  0.03747272  0.35685949  0.43025726  1
  C  C6  1  0.01810003  0.43022205  0.40165182  1
  C  C7  1  0.12554528  0.39070213  0.44323685  1
  O  O8  1  0.16254825  0.42055281  0.21779114  1
  C  C9  1  0.12092621  0.44000875  0.27375636  1
  H  H10  1  0.18079564  0.38985227  0.42976103  1
  C  C11  1  0.08785147  0.41631949  0.36617411  1
  C  C12  1  0.08473805  0.26212777  0.29174614  1
  O  O13  1  0.06099645  0.25936148  0.21555708  1
  Zn  Zn14  1  0.00224845  0.49774866  0.20942791  1
  C  C15  1  0.03391972  0.38285398  0.60223901  1
  H  H16  1  0.18791655  0.46140419  0.60196309  1
  C  C17  1  0.10590511  0.36321561  0.55735117  1
  O  O18  1  0.13092463  0.32516652  0.57667298  1
  Zn  Zn19  1  0.06879369  0.45186261  0.66644591  1
  C  C20  1  0.21157158  0.48784165  0.55162686  1
  C  C21  1  0.00858444  0.42442059  0.54349310  1
  H  H22  1  0.22416295  0.46583362  0.97598822  1
  O  O23  1  0.00520871  0.37770019  0.77909121  1
  C  C24  1  0.09584697  0.67868472  0.30802877  1
  C  C25  1  0.08311927  0.69575736  0.42784901  1
  O  O26  1  0.14550190  0.68394986  0.25748733  1
  H  H27  1  0.03334846  0.65235279  0.16337640  1
  C  C28  1  0.02624120  0.66932563  0.24336546  1
  C  C29  1  0.09194762  0.55558031  0.45092917  1
  C  C30  1  0.03606329  0.56878127  0.44854865  1
  H  H31  1  0.11740347  0.52404095  0.41527606  1
  Zn  Zn32  1  0.02248419  0.74093007  0.31136447  1
  C  C33  1  0.01274389  0.70337559  0.45834722  1
  C  C34  1  0.13610157  0.72759547  0.47178209  1
  O  O35  1  0.01196939  0.53519810  0.05445607  1
  C  C36  1  0.17842834  0.88431013  0.15184890  1
  C  C37  1  0.11497610  0.88425794  0.19021944  1
  C  C38  1  0.12062453  0.96991877  0.21141614  1
  O  O39  1  0.15686485  0.76122589  0.41435700  1
  O  O40  1  0.03053798  0.82682823  0.22385506  1
  Zn  Zn41  1  0.19803854  0.75552262  0.25173152  1
  C  C42  1  0.21427703  0.92690108  0.12957828  1
  C  C43  1  0.08770509  0.83477450  0.19530331  1
  H  H44  1  0.20215448  0.84963825  0.13406832  1
  O  O45  1  0.02556652  0.92969619  0.26390321  1
  C  C46  1  0.07947078  0.92706122  0.22221466  1
  C  C47  1  0.18148247  0.97047297  0.17237518  1
  O  O48  1  0.12453167  0.80061339  0.16676923  1
  C  C49  1  0.16457468  0.54120537  0.67785926  1
  O  O50  1  0.15369119  0.58161615  0.71783879  1
  C  C51  1  0.20759422  0.53539697  0.58432530  1
  O  O52  1  0.16032912  0.71734629  0.56234709  1
  C  C53  1  0.24004964  0.56250711  0.97462223  1
  O  O54  1  0.21737594  0.60011230  0.95636116  1
  C  C55  1  0.24292143  0.57622290  0.54064264  1
  Zn  Zn56  1  0.07958280  0.62531430  0.52814189  1
  H  H57  1  0.00662442  0.72791338  0.52940517  1
  Zn  Zn58  1  0.24038317  0.62028897  0.77322613  1
  O  O59  1  0.12324241  0.73498850  0.88108013  1
  O  O60  1  0.24284286  0.61854341  0.57747462  1
  C  C61  1  0.14474778  0.71649715  0.94793733  1
  O  O62  1  0.13888073  0.50492512  0.72393335  1
  C  C63  1  0.32988474  0.21056234  0.37099331  1
  C  C64  1  0.30923968  0.18764771  0.26905329  1
  O  O65  1  0.43935522  0.18784732  0.36010201  1
  Zn  Zn66  1  0.30785791  0.09409733  0.14903928  1
  C  C67  1  0.39008470  0.19024288  0.42006326  1
  O  O68  1  0.28228863  0.14825732  0.25042376  1
  C  C69  1  0.30461577  0.23260327  0.18237745  1
  O  O70  1  0.39501816  0.05800042  0.07769159  1
  H  H71  1  0.31267520  0.22396367  0.09494241  1
  O  O72  1  0.27946334  0.02503448  0.14248425  1
  C  C73  1  0.44275658  0.07703434  0.01885652  1
  O  O74  1  0.49462263  0.05599814  0.01685337  1
  O  O75  1  0.32431584  0.13821556  0.01437430  1
  Zn  Zn76  1  0.49972353  0.24429191  0.31126542  1
  C  C77  1  0.31793058  0.25951788  0.40089352  1
  C  C78  1  0.45222659  0.47153957  0.29483611  1
  H  H79  1  0.33988500  0.27019020  0.47825031  1
  C  C80  1  0.45094270  0.38450475  0.30022029  1
  O  O81  1  0.43874995  0.30181619  0.34130971  1
  C  C82  1  0.29240739  0.31673456  0.10650520  1
  C  C83  1  0.44911506  0.33310536  0.27142574  1
  C  C84  1  0.29107505  0.28248844  0.20101577  1
  Zn  Zn85  1  0.26629213  0.40615572  0.26447751  1
  C  C86  1  0.43186920  0.43083500  0.46869043  1
  O  O87  1  0.28837950  0.35998119  0.12312278  1
  C  C88  1  0.29318478  0.30062611  0.31731687  1
  C  C89  1  0.44081166  0.47395230  0.40493319  1
  H  H90  1  0.43191580  0.35285050  0.45322725  1
  O  O91  1  0.31556647  0.47072769  0.24456641  1
  O  O92  1  0.31420953  0.29915228  0.02106126  1
  C  C93  1  0.43946033  0.38670794  0.40914707  1
  C  C94  1  0.25057482  0.47358141  0.46119471  1
  Zn  Zn95  1  0.48620417  0.36360034  0.04427136  1
  C  C96  1  0.45883553  0.42873633  0.23676856  1
  O  O97  1  0.45657214  0.32023949  0.17573121  1
  O  O98  1  0.47597584  0.42799685  0.13501321  1
  O  O99  1  0.25859306  0.42952073  0.43981058  1
  O  O100  1  0.25807282  0.33795490  0.33092630  1
  H  H101  1  0.33337470  0.21556700  0.88385997  1
  C  C102  1  0.43040460  0.20797005  0.83459059  1
  C  C103  1  0.37771611  0.19408648  0.89568516  1
  C  C104  1  0.43404918  0.12327998  0.96337573  1
  C  C105  1  0.48930270  0.17714538  0.83626443  1
  C  C106  1  0.48679981  0.13516821  0.90291716  1
  C  C107  1  0.37410238  0.15172525  0.96199636  1
  O  O108  1  0.39505953  0.19144229  0.51922327  1
  Zn  Zn109  1  0.48883808  0.19749581  0.58951912  1
  C  C110  1  0.30767782  0.43341571  0.88037836  1
  O  O111  1  0.42918591  0.43361615  0.57046412  1
  C  C112  1  0.26330194  0.47785041  0.92258201  1
  O  O113  1  0.42475443  0.37709842  0.90242488  1
  C  C114  1  0.42362576  0.25095617  0.76666318  1
  O  O115  1  0.46605895  0.25672713  0.69494646  1
  Zn  Zn116  1  0.49532594  0.47870778  0.66451717  1
  O  O117  1  0.47962809  0.42683081  0.80169413  1
  O  O118  1  0.37053360  0.27309578  0.77288688  1
  Zn  Zn119  1  0.29784671  0.48483658  0.75669275  1
  C  C120  1  0.37305587  0.45124634  0.84942791  1
  O  O121  1  0.28306004  0.39337843  0.85935992  1
  C  C122  1  0.42651768  0.41734353  0.84861841  1
  Zn  Zn123  1  0.33711477  0.32992209  0.86528303  1
  O  O124  1  0.33309823  0.54640734  0.25804338  1
  C  C125  1  0.43452630  0.69504636  0.39918467  1
  C  C126  1  0.49370125  0.69889291  0.32754163  1
  O  O127  1  0.34456372  0.71290086  0.02624508  1
  Zn  Zn128  1  0.47078275  0.62726561  0.39124150  1
  H  H129  1  0.29156908  0.59089573  0.38877916  1
  Zn  Zn130  1  0.30421992  0.55357154  0.09542148  1
  C  C131  1  0.44471764  0.52136094  0.45600229  1
  O  O132  1  0.46020686  0.55611182  0.39142491  1
  C  C133  1  0.32104250  0.73960568  0.09981220  1
  O  O134  1  0.26944075  0.72831578  0.15165671  1
  C  C135  1  0.27926020  0.51429512  0.40330415  1
  C  C136  1  0.27162397  0.56040465  0.44140658  1
  C  C137  1  0.30965228  0.50895769  0.29802444  1
  C  C138  1  0.38233567  0.72421205  0.43720557  1
  H  H139  1  0.45452934  0.50412864  0.24638454  1
  O  O140  1  0.33221907  0.73259237  0.48339787  1
  O  O141  1  0.26894574  0.92715236  0.08965970  1
  C  C142  1  0.36449480  0.85974504  0.21815288  1
  O  O143  1  0.27553108  0.81042257  0.26368270  1
  C  C144  1  0.41794946  0.78898790  0.09783474  1
  Zn  Zn145  1  0.44528641  0.77023844  0.35567653  1
  Zn  Zn146  1  0.35324037  0.97806773  0.08038886  1
  C  C147  1  0.45024943  0.91743694  0.19934913  1
  H  H148  1  0.34546330  0.88838123  0.26732822  1
  C  C149  1  0.42426136  0.86738250  0.17502271  1
  H  H150  1  0.43760818  0.76296269  0.03705956  1
  C  C151  1  0.32711877  0.81584345  0.21115847  1
  C  C152  1  0.45785300  0.83195996  0.11080302  1
  O  O153  1  0.41117556  0.95149876  0.21681443  1
  C  C154  1  0.35719371  0.78145252  0.13754049  1
  O  O155  1  0.42282209  0.70102644  0.83516748  1
  C  C156  1  0.46076382  0.71864234  0.76686169  1
  Zn  Zn157  1  0.31851052  0.71891685  0.85812755  1
  O  O158  1  0.33504787  0.58405833  0.79626771  1
  C  C159  1  0.33936686  0.54699150  0.85045931  1
  O  O160  1  0.43689982  0.52923381  0.55080052  1
  C  C161  1  0.28374844  0.52669149  0.92982462  1
  H  H162  1  0.43955882  0.51008158  0.81926463  1
  O  O163  1  0.26686915  0.68452281  0.76053016  1
  Zn  Zn164  1  0.26230493  0.70492404  0.61218444  1
  C  C165  1  0.38607611  0.50129625  0.83619776  1
  C  C166  1  0.45340464  0.76736421  0.73116772  1
  C  C167  1  0.49437012  0.78279893  0.64786107  1
  O  O168  1  0.47189861  0.96480877  0.72884057  1
  H  H169  1  0.49325161  0.81873098  0.62238437  1
  Zn  Zn170  1  0.41849829  0.91035852  0.81792221  1
  O  O171  1  0.38870053  0.95868896  0.92987999  1
  O  O172  1  0.36893472  0.79227927  0.84777270  1
  C  C173  1  0.40605974  0.80306091  0.77407484  1
  O  O174  1  0.40554226  0.84570019  0.73743856  1
  H  H175  1  0.41886117  0.98316229  0.93838707  1
  O  O176  1  0.55618975  0.23620427  0.47383383  1
  O  O177  1  0.59699618  0.24946294  0.25165663  1
  C  C178  1  0.61716054  0.24306243  0.49698326  1
  C  C179  1  0.62783654  0.36723850  0.03739324  1
  C  C180  1  0.66463563  0.25748694  0.41611312  1
  C  C181  1  0.65065477  0.26480570  0.29745892  1
  O  O182  1  0.69232340  0.28256357  0.23801909  1
  C  C183  1  0.73018363  0.26858277  0.43224232  1
  O  O184  1  0.59683433  0.49782392  0.23440702  1
  O  O185  1  0.61018886  0.39932131  0.10285398  1
  C  C186  1  0.68388585  0.39327017  0.35528764  1
  O  O187  1  0.72334957  0.41689766  0.33873435  1
  Zn  Zn188  1  0.55960872  0.47133833  0.08277353  1
  C  C189  1  0.70160243  0.35910403  0.02285203  1
  C  C190  1  0.73811698  0.32623548  0.00573850  1
  O  O191  1  0.65620363  0.10053520  0.84703042  1
  C  C192  1  0.61495793  0.06835235  0.81764414  1
  Zn  Zn193  1  0.64367724  0.17151912  0.80933573  1
  C  C194  1  0.57786626  0.07194901  0.71812296  1
  C  C195  1  0.57906602  0.11648814  0.64472715  1
  O  O196  1  0.62460463  0.14650668  0.64998566  1
  C  C197  1  0.60194691  0.02367183  0.87035840  1
  O  O198  1  0.53513369  0.19522805  0.78486409  1
  O  O199  1  0.53028736  0.12731943  0.58614596  1
  C  C200  1  0.53371056  0.03804761  0.69010584  1
  H  H201  1  0.52450457  0.10914661  0.91654190  1
  H  H202  1  0.62491947  0.01236601  0.94824025  1
  H  H203  1  0.62307004  0.22709136  0.67449855  1
  C  C204  1  0.64900536  0.23932849  0.59941888  1
  O  O205  1  0.69194467  0.23649419  0.80825842  1
  H  H206  1  0.50687130  0.04842509  0.61637580  1
  C  C207  1  0.71379921  0.24831423  0.61978550  1
  C  C208  1  0.73335561  0.24673752  0.73602084  1
  O  O209  1  0.61566243  0.48555671  0.93756023  1
  Zn  Zn210  1  0.67550763  0.38919237  0.66968965  1
  C  C211  1  0.64750688  0.45362594  0.77369014  1
  O  O212  1  0.58569624  0.34131326  0.99667875  1
  O  O213  1  0.59152656  0.46328281  0.59621459  1
  C  C214  1  0.69804321  0.42979518  0.82319675  1
  C  C215  1  0.64418735  0.46131241  0.65123169  1
  H  H216  1  0.70055609  0.43173903  0.91290094  1
  C  C217  1  0.71692672  0.44681960  0.60100015  1
  C  C218  1  0.60015488  0.48145137  0.83925375  1
  H  H219  1  0.72118946  0.28961439  0.98842984  1
  H  H220  1  0.72857609  0.46874414  0.52523622  1
  C  C221  1  0.60123034  0.58171626  0.19318129  1
  C  C222  1  0.62063823  0.53822391  0.24835262  1
  C  C223  1  0.62903446  0.62529013  0.21951199  1
  H  H224  1  0.60957669  0.65772762  0.17680983  1
  C  C225  1  0.66879676  0.54786459  0.33003430  1
  C  C226  1  0.68086191  0.63039879  0.29618443  1
  H  H227  1  0.68504874  0.51799273  0.37442508  1
  C  C228  1  0.54973175  0.58179550  0.11061189  1
  C  C229  1  0.69983876  0.58964523  0.35686991  1
  O  O230  1  0.51789677  0.54662019  0.08074094  1
  H  H231  1  0.71545917  0.72934815  0.11989030  1
  O  O232  1  0.70596773  0.67172605  0.31869104  1
  O  O233  1  0.54364862  0.62143320  0.05984670  1
  O  O234  1  0.54787885  0.69707788  0.28880002  1
  Zn  Zn235  1  0.62497577  0.72531384  0.38368913  1
  C  C236  1  0.74508707  0.58830733  0.45239367  1
  O  O237  1  0.51012633  0.92462656  0.21001546  1
  O  O238  1  0.51142020  0.83980842  0.06830144  1
  Zn  Zn239  1  0.58660655  0.89329861  0.10878405  1
  O  O240  1  0.63867685  0.76219454  0.22723325  1
  C  C241  1  0.72312415  0.85171267  0.05701348  1
  C  C242  1  0.70285854  0.80511893  0.10101403  1
  O  O243  1  0.69418891  0.89051193  0.07717813  1
  C  C244  1  0.73153852  0.76231975  0.07944012  1
  O  O245  1  0.62532974  0.83818140  0.22548354  1
  C  C246  1  0.64974067  0.80179719  0.18735380  1
  Zn  Zn247  1  0.59988931  0.65583702  0.93738054  1
  C  C248  1  0.67441962  0.66634837  0.83617443  1
  O  O249  1  0.58806405  0.63110928  0.60328638  1
  C  C250  1  0.64634341  0.71301380  0.84309116  1
  C  C251  1  0.54580961  0.70775247  0.62380956  1
  C  C252  1  0.59837139  0.67269226  0.58492642  1
  O  O253  1  0.55316019  0.50364475  0.79505671  1
  O  O254  1  0.71320892  0.63922327  0.80064007  1
  H  H255  1  0.51711833  0.65388099  0.72578877  1
  C  C256  1  0.51245353  0.69242729  0.70890934  1
  H  H257  1  0.73256710  0.74265097  0.75389712  1
  O  O258  1  0.64457149  0.68734322  0.52166779  1
  C  C259  1  0.68222504  0.75294703  0.77834742  1
  C  C260  1  0.55349051  0.94580522  0.90782438  1
  O  O261  1  0.51755257  0.91186867  0.88992409  1
  O  O262  1  0.57863455  0.76968557  0.50978758  1
  O  O263  1  0.67672756  0.84301749  0.74340100  1
  C  C264  1  0.54104588  0.75613601  0.58619739  1
  O  O265  1  0.59085071  0.94623007  0.98979559  1
  Zn  Zn266  1  0.59147295  0.77646191  0.87291315  1
  C  C267  1  0.55916516  0.98892091  0.84031458  1
  C  C268  1  0.66611396  0.80327215  0.76820139  1
  C  C269  1  0.51420479  0.99511494  0.74885299  1
  O  O270  1  0.94313956  0.45239110  0.10077458  1
  H  H271  1  0.76068389  0.28007921  0.36471950  1
  O  O272  1  0.97112909  0.43694202  0.34288796  1
  Zn  Zn273  1  0.80069228  0.38277824  0.01502522  1
  C  C274  1  0.91595999  0.45877710  0.01219114  1
  O  O275  1  0.86696708  0.45265912  0.59495008  1
  O  O276  1  0.85290727  0.37432527  0.57071124  1
  C  C277  1  0.76020202  0.40183314  0.76049648  1
  Zn  Zn278  1  0.85263496  0.31254208  0.68747356  1
  O  O279  1  0.79100971  0.25765426  0.75967419  1
  O  O280  1  0.82057004  0.27086714  0.55783960  1
  C  C281  1  0.76814013  0.41809585  0.64623490  1
  O  O282  1  0.78652780  0.36568413  0.79361709  1
  H  H283  1  0.95624587  0.43693255  0.56527306  1
  C  C284  1  0.83357434  0.41561532  0.59036255  1
  H  H285  1  0.83975846  0.48086536  0.85147783  1
  O  O286  1  0.88059059  0.42474498  0.97691856  1
  O  O287  1  0.95878533  0.32163782  0.68077393  1
  C  C288  1  0.76163069  0.26149406  0.53459987  1
  C  C289  1  0.99351168  0.35826486  0.69417035  1
  C  C290  1  0.91130302  0.67657284  0.17875415  1
  O  O291  1  0.85782682  0.65982903  0.21039103  1
  O  O292  1  0.93261547  0.67730557  0.08578069  1
  Zn  Zn293  1  0.80893458  0.67192159  0.35865678  1
  O  O294  1  0.89115178  0.71431923  0.38889518  1
  C  C295  1  0.94877926  0.69724564  0.37819655  1
  C  C296  1  0.96563063  0.55838245  0.41133840  1
  O  O297  1  0.95710588  0.54829425  0.31592877  1
  C  C298  1  0.96045331  0.68336470  0.26735247  1
  O  O299  1  0.77607764  0.62609883  0.49333064  1
  O  O300  1  0.92289609  0.56347295  0.47920012  1
  O  O301  1  0.75071708  0.54845774  0.49432212  1
  O  O302  1  0.88833528  0.64762698  0.70238347  1
  C  C303  1  0.92439492  0.63520271  0.77821419  1
  C  C304  1  0.91886104  0.58784549  0.83383047  1
  O  O305  1  0.96537515  0.66314967  0.82395495  1
  O  O306  1  0.83297750  0.55435128  0.72088903  1
  C  C307  1  0.96523410  0.58190502  0.91293691  1
  C  C308  1  0.87375189  0.55023904  0.80166818  1
  Zn  Zn309  1  0.84397767  0.52139058  0.55876185  1
  Zn  Zn310  1  0.91686492  0.71353600  0.93845073  1
  Zn  Zn311  1  0.79168126  0.61975621  0.66286637  1
  H  H312  1  0.99254570  0.61518546  0.93878338  1
  C  C313  1  0.87766459  0.50816312  0.86642759  1
  C  C314  1  0.96949437  0.54003144  0.98067272  1
  C  C315  1  0.92240373  0.50437582  0.94900229  1
  O  O316  1  0.80766457  0.71925489  0.96786266  1
  O  O317  1  0.90404398  0.77271220  0.85561783  1
  O  O318  1  0.89800285  0.84798563  0.89015253  1
  C  C319  1  0.87366381  0.80872113  0.89881622  1
  H  H320  1  0.80660753  0.87927710  0.96700203  1
  C  C321  1  0.80951903  0.80413126  0.96431315  1
  C  C322  1  0.78217701  0.75758563  0.99750344  1
  C  C323  1  0.78190552  0.84592797  0.99288977  1
