# generated using pymatgen
data_ZnHC4O3
_symmetry_space_group_name_H-M   'P 1'
_cell_length_a   35.47865208
_cell_length_b   19.93919239
_cell_length_c   10.34445725
_cell_angle_alpha   90.00000000
_cell_angle_beta   90.00000000
_cell_angle_gamma   90.00000000
_symmetry_Int_Tables_number   1
_chemical_formula_structural   ZnHC4O3
_chemical_formula_sum   'Zn36 H36 C144 O108'
_cell_volume   7317.83115351
_cell_formula_units_Z   36
loop_
 _symmetry_equiv_pos_site_id
 _symmetry_equiv_pos_as_xyz
  1  'x, y, z'
loop_
 _atom_site_type_symbol
 _atom_site_label
 _atom_site_symmetry_multiplicity
 _atom_site_fract_x
 _atom_site_fract_y
 _atom_site_fract_z
 _atom_site_occupancy
  H  H0  1  0.15771115  0.40689634  0.15295086  1
  C  C1  1  0.08675476  0.38847188  0.19130249  1
  C  C2  1  0.19826784  0.19429256  0.42377905  1
  O  O3  1  0.17610627  0.18630691  0.14377194  1
  C  C4  1  0.12228865  0.47592653  0.03148516  1
  O  O5  1  0.22620605  0.37145824  0.28218244  1
  O  O6  1  0.16396730  0.20386494  0.41543927  1
  O  O7  1  0.10021145  0.37596366  0.29419501  1
  C  C8  1  0.16052900  0.44293740  0.06920959  1
  C  C9  1  0.21060432  0.19227832  0.17719849  1
  C  C10  1  0.22390985  0.19058533  0.31296907  1
  C  C11  1  0.08711856  0.42750944  0.05771381  1
  C  C12  1  0.14854052  0.00935817  0.01049177  1
  Zn  Zn13  1  0.09213756  0.32399521  0.03505449  1
  O  O14  1  0.23555231  0.19650137  0.08910346  1
  O  O15  1  0.00764614  0.26714940  0.23601516  1
  Zn  Zn16  1  0.18527761  0.38573914  0.42252428  1
  O  O17  1  0.17809866  0.49875203  0.43863105  1
  H  H18  1  0.08965820  0.02908424  0.00083544  1
  O  O19  1  0.23505092  0.39452851  0.55465751  1
  H  H20  1  0.04020187  0.19304186  0.95960127  1
  C  C21  1  0.02009077  0.41560414  0.74956778  1
  O  O22  1  0.08262669  0.44785513  0.78194872  1
  C  C23  1  0.05586263  0.21144973  0.76138251  1
  C  C24  1  0.03052932  0.20011436  0.85663000  1
  C  C25  1  0.04420100  0.21416225  0.62519300  1
  O  O26  1  0.09900825  0.23199117  0.92979358  1
  C  C27  1  0.00327345  0.20582475  0.60427796  1
  C  C28  1  0.21651918  0.19551856  0.55038182  1
  O  O29  1  0.16860816  0.10882200  0.88034333  1
  O  O30  1  0.22427368  0.34428744  0.86068674  1
  Zn  Zn31  1  0.12334914  0.26401930  0.53877652  1
  H  H32  1  0.19945758  0.20771351  0.64077296  1
  C  C33  1  0.09405020  0.22460441  0.80318054  1
  C  C34  1  0.05078118  0.43199011  0.83024520  1
  C  C35  1  0.01878004  0.41491526  0.60644501  1
  O  O36  1  0.14429965  0.35696469  0.54219227  1
  Zn  Zn37  1  0.10866668  0.42286616  0.60849904  1
  O  O38  1  0.12272997  0.23095305  0.73320767  1
  C  C39  1  0.19870513  0.35854439  0.93628505  1
  O  O40  1  0.04714976  0.42544401  0.95320864  1
  C  C41  1  0.21647056  0.47965614  0.94073773  1
  O  O42  1  0.06873833  0.22156547  0.54144703  1
  O  O43  1  0.04745247  0.43044388  0.54531535  1
  C  C44  1  0.17644173  0.06095396  0.95232043  1
  O  O45  1  0.24436680  0.18290913  0.78489193  1
  Zn  Zn46  1  0.16242840  0.20951844  0.95130126  1
  O  O47  1  0.17853561  0.31509660  0.98590046  1
  O  O48  1  0.24148452  0.49687644  0.86885309  1
  C  C49  1  0.19250277  0.43025377  0.98133127  1
  O  O50  1  0.21073123  0.04529920  0.96589465  1
  H  H51  1  0.11896422  0.74276895  0.22072679  1
  C  C52  1  0.13829496  0.70217064  0.25742757  1
  O  O53  1  0.15583933  0.82861139  0.19681000  1
  O  O54  1  0.09262312  0.61706300  0.29419002  1
  C  C55  1  0.19293832  0.60963214  0.33418786  1
  C  C56  1  0.15571635  0.59269599  0.34147043  1
  C  C57  1  0.20600004  0.67060536  0.27567574  1
  C  C58  1  0.12465506  0.63594775  0.29784301  1
  C  C59  1  0.18278237  0.78845534  0.21053515  1
  C  C60  1  0.17527123  0.71814440  0.25111347  1
  H  H61  1  0.21444201  0.57688061  0.37413158  1
  O  O62  1  0.21510767  0.81205839  0.19107255  1
  Zn  Zn63  1  0.17557449  0.54193877  0.02701275  1
  C  C64  1  0.14816925  0.52936136  0.41438564  1
  Zn  Zn65  1  0.08047557  0.52831030  0.13339700  1
  C  C66  1  0.11509444  0.99877487  0.02183042  1
  C  C67  1  0.06431548  0.97187262  0.31959131  1
  Zn  Zn68  1  0.14863189  0.92438226  0.11326417  1
  O  O69  1  0.04504082  0.93214747  0.29916957  1
  O  O70  1  0.23954675  0.68826730  0.25368097  1
  O  O71  1  0.11791428  0.50369688  0.45529742  1
  H  H72  1  0.10320009  0.54531898  0.88717841  1
  C  C73  1  0.11806876  0.53907932  0.97675636  1
  O  O74  1  0.13823556  0.69828014  0.86385004  1
  C  C75  1  0.10957224  0.71115617  0.84763104  1
  H  H76  1  0.26733365  0.38219838  0.05711230  1
  C  C77  1  0.27939550  0.39718773  0.15004961  1
  C  C78  1  0.25928478  0.39219657  0.27139445  1
  O  O79  1  0.37756398  0.09494746  0.20714930  1
  C  C80  1  0.26163475  0.17681890  0.32605448  1
  C  C81  1  0.36674026  0.04680785  0.15453542  1
  H  H82  1  0.27954908  0.16644006  0.24268823  1
  C  C83  1  0.31487490  0.42400658  0.15182427  1
  C  C84  1  0.33755347  0.44300630  0.26241941  1
  C  C85  1  0.28148041  0.40904080  0.38369065  1
  C  C86  1  0.31788251  0.43172026  0.38271636  1
  O  O87  1  0.37150691  0.46253944  0.25539207  1
  H  H88  1  0.32961177  0.44650810  0.47648579  1
  C  C89  1  0.33333935  0.41515450  0.02286140  1
  C  C90  1  0.27862967  0.16468582  0.44794807  1
  O  O91  1  0.31231183  0.14534106  0.46133959  1
  C  C92  1  0.36872484  0.04235013  0.00958385  1
  O  O93  1  0.30901507  0.09446322  0.00169052  1
  O  O94  1  0.29109930  0.42293868  0.61384580  1
  O  O95  1  0.30224853  0.16885007  0.72012826  1
  Zn  Zn96  1  0.33331031  0.08724199  0.62451152  1
  O  O97  1  0.31661080  0.38159034  0.93582896  1
  O  O98  1  0.39137179  0.06189193  0.61644987  1
  C  C99  1  0.33570878  0.06543133  0.94038423  1
  O  O100  1  0.33095423  0.05249797  0.82355672  1
  Zn  Zn101  1  0.27470679  0.41188536  0.80196204  1
  Zn  Zn102  1  0.25303865  0.11733918  0.96535344  1
  C  C103  1  0.26806948  0.17947722  0.69636112  1
  C  C104  1  0.40593161  0.00299074  0.62062530  1
  C  C105  1  0.25331278  0.17867621  0.55975327  1
  O  O106  1  0.47436005  0.11467201  0.94145436  1
  Zn  Zn107  1  0.42672257  0.05821646  0.94683036  1
  C  C108  1  0.26819762  0.40638276  0.52155013  1
  O  O109  1  0.36186631  0.44871505  0.99234875  1
  C  C110  1  0.34973094  0.97596181  0.21412766  1
  O  O111  1  0.30903949  0.75887344  0.41961311  1
  C  C112  1  0.45378353  0.55873059  0.31360764  1
  C  C113  1  0.48752701  0.55502129  0.39860518  1
  C  C114  1  0.33868726  0.85412330  0.15154519  1
  O  O115  1  0.41615260  0.87110102  0.04797962  1
  Zn  Zn116  1  0.40596400  0.95280720  0.27297991  1
  C  C117  1  0.36220605  0.91489981  0.15382357  1
  Zn  Zn118  1  0.26995677  0.77872430  0.26342681  1
  Zn  Zn119  1  0.40140315  0.50935973  0.10772610  1
  O  O120  1  0.30576676  0.85584814  0.19086366  1
  O  O121  1  0.42459821  0.58976980  0.34597638  1
  C  C122  1  0.39467737  0.92021985  0.06072398  1
  O  O123  1  0.45447000  0.52115872  0.21291023  1
  O  O124  1  0.35426000  0.79954353  0.11247641  1
  O  O125  1  0.36403582  0.70921047  0.40567584  1
  C  C126  1  0.34510765  0.76026554  0.42937513  1
  C  C127  1  0.36254207  0.82208941  0.47794991  1
  H  H128  1  0.30465465  0.86266717  0.47263352  1
  H  H129  1  0.32023944  0.97579124  0.23654726  1
  Zn  Zn130  1  0.41844183  0.67911631  0.46565877  1
  H  H131  1  0.48544251  0.55290425  0.02045942  1
  O  O132  1  0.42757234  0.77983823  0.48950636  1
  C  C133  1  0.33571593  0.87390161  0.48728888  1
  C  C134  1  0.38884013  0.98517836  0.96167073  1
  C  C135  1  0.49489151  0.60153773  0.98118323  1
  O  O136  1  0.42012151  0.56383569  0.95433297  1
  C  C137  1  0.40217525  0.82496381  0.50437607  1
  C  C138  1  0.38555837  0.94126446  0.56466413  1
  O  O139  1  0.31992514  0.98345989  0.53772355  1
  O  O140  1  0.45501096  0.76409096  0.88857036  1
  H  H141  1  0.38027554  0.96488437  0.86631245  1
  C  C142  1  0.42844960  0.62638327  0.95158265  1
  O  O143  1  0.40290190  0.66912929  0.92893733  1
  C  C144  1  0.41100107  0.89080483  0.55755567  1
  C  C145  1  0.46848220  0.64749447  0.94742197  1
  H  H146  1  0.44055702  0.89839782  0.59116264  1
  C  C147  1  0.47724092  0.71788187  0.91587058  1
  Zn  Zn148  1  0.40286045  0.76994291  0.98724501  1
  C  C149  1  0.34502861  0.93922446  0.52897273  1
  O  O150  1  0.47016908  0.63943687  0.54753700  1
  O  O151  1  0.43635994  0.99477119  0.67433447  1
  C  C152  1  0.49248642  0.59415500  0.51539249  1
  H  H153  1  0.50563024  0.48018521  0.27330783  1
  H  H154  1  0.70387051  0.32956655  0.26715901  1
  C  C155  1  0.62175114  0.21674620  0.39732400  1
  C  C156  1  0.70523169  0.04421309  0.37770564  1
  C  C157  1  0.59078405  0.26110313  0.43397720  1
  O  O158  1  0.67149088  0.41055471  0.37009798  1
  O  O159  1  0.55805641  0.25800096  0.39629042  1
  O  O160  1  0.59195525  0.17872006  0.20742874  1
  C  C161  1  0.64673362  0.10283482  0.29395128  1
  C  C162  1  0.73059215  0.32715590  0.31675751  1
  C  C163  1  0.61417628  0.16327446  0.29518032  1
  Zn  Zn164  1  0.53371460  0.18663209  0.26422072  1
  O  O165  1  0.51515714  0.08876488  0.27558295  1
  C  C166  1  0.70315566  0.42660153  0.42045847  1
  C  C167  1  0.73540360  0.37821121  0.39774136  1
  Zn  Zn168  1  0.66959263  0.20108697  0.28629099  1
  C  C169  1  0.51965465  0.04630813  0.18605481  1
  O  O170  1  0.60503665  0.30953611  0.49705855  1
  O  O171  1  0.56636007  0.44480900  0.38396627  1
  H  H172  1  0.64052642  0.05783103  0.24260911  1
  C  C173  1  0.67989541  0.10298641  0.36857469  1
  C  C174  1  0.68706872  0.15514243  0.46871227  1
  O  O175  1  0.72549251  0.09865049  0.03244417  1
  Zn  Zn176  1  0.57961368  0.02664335  0.12420707  1
  Zn  Zn177  1  0.62119407  0.40782356  0.46775302  1
  O  O178  1  0.74124863  0.04800497  0.35341313  1
  O  O179  1  0.50432105  0.17984142  0.08191570  1
  O  O180  1  0.74684138  0.23136005  0.19930876  1
  C  C181  1  0.53015425  0.07385007  0.05056381  1
  C  C182  1  0.50186903  0.12656096  0.01808033  1
  C  C183  1  0.54619347  0.48874636  0.43309485  1
  O  O184  1  0.70402860  0.47547628  0.49558523  1
  C  C185  1  0.65482320  0.21168612  0.47797386  1
  C  C186  1  0.72757956  0.33757146  0.77675670  1
  O  O187  1  0.71814225  0.11172027  0.82203281  1
  O  O188  1  0.71441545  0.28942002  0.71165710  1
  C  C189  1  0.70355680  0.39394293  0.81970701  1
  C  C190  1  0.68144716  0.49608548  0.90982737  1
  C  C191  1  0.71382813  0.44740618  0.89145709  1
  H  H192  1  0.55259521  0.05918511  0.86139089  1
  H  H193  1  0.65971391  0.25618535  0.54248112  1
  H  H194  1  0.67253474  0.38566909  0.78724322  1
  C  C195  1  0.73768810  0.09327772  0.92193293  1
  Zn  Zn196  1  0.73879931  0.19162140  0.70592333  1
  C  C197  1  0.54893453  0.03691373  0.95719939  1
  O  O198  1  0.71939447  0.16031121  0.51488628  1
  O  O199  1  0.61174911  0.48536261  0.60271292  1
  O  O200  1  0.64851453  0.47809950  0.86958500  1
  O  O201  1  0.60757060  0.85278985  0.12598711  1
  C  C202  1  0.53438003  0.97058678  0.20259519  1
  C  C203  1  0.57411907  0.86834756  0.15581995  1
  Zn  Zn204  1  0.57817944  0.78755272  0.40498030  1
  O  O205  1  0.55569630  0.83993106  0.24191137  1
  C  C206  1  0.55729532  0.93345034  0.11221587  1
  C  C207  1  0.51230681  0.50823514  0.36349852  1
  H  H208  1  0.52410254  0.94483730  0.28831305  1
  O  O209  1  0.69275347  0.98935882  0.40906602  1
  O  O210  1  0.55765802  0.56404447  0.01676334  1
  Zn  Zn211  1  0.73797186  0.60345010  0.93707326  1
  O  O212  1  0.64765079  0.80443132  0.74161219  1
  O  O213  1  0.68634396  0.55102796  0.96670121  1
  C  C214  1  0.70519341  0.91617250  0.86410214  1
  C  C215  1  0.58401674  0.70495246  0.94336607  1
  C  C216  1  0.56310168  0.95468646  0.97443725  1
  H  H217  1  0.53563108  0.60620756  0.67586657  1
  C  C218  1  0.63388085  0.81359669  0.62768012  1
  O  O219  1  0.69998699  0.94293226  0.75721704  1
  C  C220  1  0.53617109  0.61045325  0.98156976  1
  O  O221  1  0.74087584  0.68966420  0.81052737  1
  O  O222  1  0.65140625  0.85203517  0.54757566  1
  C  C223  1  0.56748479  0.76597179  0.59519726  1
  O  O224  1  0.61167812  0.66669276  0.95599896  1
  O  O225  1  0.58964363  0.93135037  0.91202930  1
  C  C226  1  0.58815202  0.53122836  0.61702899  1
  O  O227  1  0.58787567  0.76335154  0.90656060  1
  Zn  Zn228  1  0.69727836  0.91228106  0.56364003  1
  Zn  Zn229  1  0.60896372  0.55691763  0.91601411  1
  O  O230  1  0.59562904  0.57902481  0.69833029  1
  Zn  Zn231  1  0.59416205  0.67789901  0.64000803  1
  O  O232  1  0.68076272  0.89968531  0.94683496  1
  C  C233  1  0.54348049  0.68012168  0.94793187  1
  C  C234  1  0.60545432  0.77149411  0.57209964  1
  H  H235  1  0.55464686  0.80539516  0.65874406  1
  Zn  Zn236  1  0.63064806  0.84966850  0.92205480  1
  C  C237  1  0.52693947  0.57995835  0.58537595  1
  H  H238  1  0.53008064  0.77766157  0.90852849  1
  H  H239  1  0.74599205  0.79179159  0.69653435  1
  C  C240  1  0.51815723  0.72853990  0.91937686  1
  C  C241  1  0.74478334  0.89625742  0.89095783  1
  C  C242  1  0.55305230  0.53437933  0.54271059  1
  O  O243  1  0.80655251  0.15830824  0.32927465  1
  C  C244  1  0.77143234  0.38387710  0.46265699  1
  Zn  Zn245  1  0.90009785  0.24078519  0.37708786  1
  Zn  Zn246  1  0.76215604  0.12787950  0.20252280  1
  C  C247  1  0.89790697  0.13321118  0.19046500  1
  C  C248  1  0.88877353  0.07121710  0.26577093  1
  O  O249  1  0.92250747  0.34033639  0.43219070  1
  O  O250  1  0.88357048  0.13640175  0.07828109  1
  H  H251  1  0.82509242  0.32334442  0.49294234  1
  O  O252  1  0.91573504  0.18459522  0.22937380  1
  C  C253  1  0.78854277  0.27198317  0.37392335  1
  C  C254  1  0.99627091  0.31625352  0.18977511  1
  C  C255  1  0.81534680  0.21329073  0.37666175  1
  O  O256  1  0.80334927  0.06602305  0.10144478  1
  O  O257  1  0.84452284  0.21728740  0.44420629  1
  C  C258  1  0.75657104  0.27219513  0.28534497  1
  C  C259  1  0.79621786  0.32517838  0.45055126  1
  C  C260  1  0.87362788  0.01652953  0.25794280  1
  O  O261  1  0.98516167  0.36682431  0.14815597  1
  Zn  Zn262  1  0.88667253  0.02658219  0.44953606  1
  H  H263  1  0.98018156  0.39081934  0.45014351  1
  C  C264  1  0.84471610  0.02612075  0.79160034  1
  C  C265  1  0.97978976  0.19534808  0.70032948  1
  C  C266  1  0.78151329  0.05720025  0.75684018  1
  C  C267  1  0.93921360  0.18959528  0.66785429  1
  Zn  Zn268  1  0.88063926  0.28249411  0.76256175  1
  O  O269  1  0.91266910  0.19578272  0.75834984  1
  C  C270  1  0.99024575  0.19108659  0.84015291  1
  O  O271  1  0.92784656  0.18714505  0.55566101  1
  O  O272  1  0.92415044  0.35629832  0.82680176  1
  C  C273  1  0.79411445  0.29673303  0.79106703  1
  C  C274  1  0.95278713  0.37500402  0.76731230  1
  C  C275  1  0.77585044  0.06670057  0.88716310  1
  O  O276  1  0.78950654  0.24497301  0.72417350  1
  Zn  Zn277  1  0.91548206  0.12050358  0.91212724  1
  O  O278  1  0.82704861  0.30691028  0.83707983  1
  O  O279  1  0.81656753  0.02397169  0.57149049  1
  C  C280  1  0.91805552  0.35735777  0.54830266  1
  O  O281  1  0.90959369  0.02529748  0.83564658  1
  C  C282  1  0.95266628  0.37486379  0.62591269  1
  O  O283  1  0.88525813  0.35420653  0.59447445  1
  C  C284  1  0.98252769  0.39397686  0.55407554  1
  C  C285  1  0.77833167  0.40076298  0.90229162  1
  C  C286  1  0.98808325  0.39854654  0.82171432  1
  C  C287  1  0.83999575  0.03311681  0.92228943  1
  O  O288  1  0.96509176  0.18375278  0.92302261  1
  H  H289  1  0.99032323  0.39818124  0.92651278  1
  C  C290  1  0.81502091  0.03326464  0.69243000  1
  C  C291  1  0.80549244  0.05504758  0.98084554  1
  H  H292  1  0.80779072  0.40173645  0.93230509  1
  H  H293  1  0.75557346  0.06445968  0.69836098  1
  C  C294  1  0.76570531  0.34778447  0.82820861  1
  C  C295  1  0.88448011  0.01252607  0.75419377  1
  H  H296  1  0.86404672  0.02466997  0.98586429  1
  O  O297  1  0.77690083  0.43264024  0.53584683  1
  C  C298  1  0.75318895  0.45414257  0.93467242  1
  H  H299  1  0.98972151  0.20987801  0.50962221  1
  C  C300  1  0.79842744  0.83793241  0.29302902  1
  C  C301  1  0.78553120  0.72944789  0.37253912  1
  O  O302  1  0.79613230  0.90065353  0.29467770  1
  O  O303  1  0.80236470  0.81057781  0.18233483  1
  H  H304  1  0.79763479  0.71715821  0.27760109  1
  Zn  Zn305  1  0.78331755  0.97312469  0.43848890  1
  C  C306  1  0.77762393  0.68054680  0.47038424  1
  C  C307  1  0.78276940  0.79634374  0.39978314  1
  O  O308  1  0.78196442  0.61928924  0.45765881  1
  H  H309  1  0.85933656  0.98940761  0.17679543  1
  C  C310  1  0.82454952  0.66547490  0.05548457  1
  Zn  Zn311  1  0.77879275  0.86028381  0.02701675  1
  O  O312  1  0.84640224  0.68057333  0.11778334  1
  C  C313  1  0.77631756  0.89592367  0.84399776  1
  H  H314  1  0.78804592  0.91039589  0.74904073  1
  O  O315  1  0.75735587  0.88812558  0.52623788  1
  C  C316  1  0.76275640  0.70726544  0.59409450  1
  C  C317  1  0.75621886  0.77457641  0.60622017  1
  O  O318  1  0.75773418  0.60158428  0.70015083  1
  Zn  Zn319  1  0.75241484  0.53436781  0.53496851  1
  O  O320  1  0.89109085  0.98913323  0.64312231  1
  C  C321  1  0.75488716  0.66548588  0.70684089  1
  O  O322  1  0.76239217  0.50765794  0.99400994  1
  C  C323  1  0.76430342  0.82578652  0.51212660  1
