# generated using pymatgen
data_CuH7C5NO4
_symmetry_space_group_name_H-M   'P 1'
_cell_length_a   15.21285587
_cell_length_b   21.02167308
_cell_length_c   20.47492982
_cell_angle_alpha   90.00000000
_cell_angle_beta   90.00000000
_cell_angle_gamma   90.00000000
_symmetry_Int_Tables_number   1
_chemical_formula_structural   CuH7C5NO4
_chemical_formula_sum   'Cu32 H224 C160 N32 O128'
_cell_volume   6547.87606016
_cell_formula_units_Z   32
loop_
 _symmetry_equiv_pos_site_id
 _symmetry_equiv_pos_as_xyz
  1  'x, y, z'
loop_
 _atom_site_type_symbol
 _atom_site_label
 _atom_site_symmetry_multiplicity
 _atom_site_fract_x
 _atom_site_fract_y
 _atom_site_fract_z
 _atom_site_occupancy
  O  O0  1  0.01633510  0.43133158  0.00557464  1
  C  C1  1  0.24808591  0.29936117  0.12845922  1
  C  C2  1  0.09276494  0.43896659  0.03125759  1
  N  N3  1  0.21229444  0.03917538  0.20489409  1
  C  C4  1  0.23064399  0.05558985  0.08105212  1
  C  C5  1  0.20258415  0.01473401  0.13823712  1
  O  O6  1  0.30661767  0.34088096  0.23342196  1
  H  H7  1  0.12165348  0.11618451  0.11576964  1
  H  H8  1  0.30380601  0.06322004  0.07896637  1
  H  H9  1  0.21808966  0.15427049  0.10883950  1
  C  C10  1  0.24159576  0.34271963  0.19535471  1
  O  O11  1  0.44167528  0.40764564  0.04494899  1
  O  O12  1  0.39955837  0.18423436  0.16198249  1
  O  O13  1  0.18163918  0.37808585  0.20102809  1
  O  O14  1  0.24014600  0.19457990  0.23093203  1
  H  H15  1  0.21177531  0.02919815  0.03504009  1
  H  H16  1  0.19139687  0.31280865  0.09807785  1
  O  O17  1  0.48502500  0.34441721  0.23043017  1
  H  H18  1  0.37919965  0.33470987  0.12138167  1
  C  C19  1  0.43280441  0.20939990  0.10854924  1
  C  C20  1  0.33073710  0.30890729  0.09053199  1
  C  C21  1  0.36575035  0.24711427  0.06162260  1
  H  H22  1  0.48428034  0.26318492  0.01089735  1
  H  H23  1  0.06321593  0.26281992  0.18487344  1
  C  C24  1  0.05924113  0.21335128  0.20095895  1
  H  H25  1  0.24582683  0.25079220  0.14391011  1
  H  H26  1  0.17269789  0.07973227  0.21470069  1
  H  H27  1  0.32068535  0.34413829  0.04925840  1
  C  C28  1  0.17665745  0.11990903  0.08295445  1
  H  H29  1  0.31171831  0.21185947  0.04271264  1
  Cu  Cu30  1  0.35492957  0.22429656  0.24409196  1
  C  C31  1  0.14792158  0.15052389  0.01482734  1
  H  H32  1  0.09512418  0.18521524  0.16417482  1
  H  H33  1  0.27044643  0.05829196  0.22360233  1
  N  N34  1  0.41798104  0.26640082  0.00367645  1
  H  H35  1  0.25710692  0.48423237  0.05158043  1
  O  O36  1  0.13863366  0.39839239  0.05164803  1
  C  C37  1  0.49257255  0.45587649  0.03865168  1
  O  O38  1  0.20190338  0.14316342  0.32009090  1
  Cu  Cu39  1  0.11625224  0.13340593  0.39269584  1
  H  H40  1  0.48474192  0.06479243  0.46547747  1
  Cu  Cu41  1  0.39035110  0.40147758  0.25309385  1
  O  O42  1  0.31008285  0.33598784  0.38712775  1
  C  C43  1  0.28300926  0.26590728  0.47415361  1
  O  O44  1  0.46875602  0.46951333  0.26269026  1
  N  N45  1  0.17326723  0.05111426  0.49580852  1
  C  C46  1  0.18698099  0.17949614  0.27393531  1
  O  O47  1  0.03947989  0.14157111  0.45911251  1
  H  H48  1  0.23962300  0.18923535  0.41663448  1
  H  H49  1  0.33594600  0.02316333  0.40633520  1
  Cu  Cu50  1  0.12419750  0.40224358  0.40807285  1
  N  N51  1  0.03878453  0.17513119  0.32043075  1
  H  H52  1  0.13186497  0.43392796  0.28237314  1
  O  O53  1  0.10030111  0.04627567  0.36733656  1
  H  H54  1  0.06867571  0.47841651  0.31773590  1
  N  N55  1  0.22784591  0.21206036  0.46011760  1
  O  O56  1  0.21093919  0.36253516  0.46133441  1
  O  O57  1  0.45034651  0.47977043  0.36648594  1
  H  H58  1  0.34143794  0.24001825  0.45332283  1
  H  H59  1  0.10262206  0.05517721  0.49645640  1
  H  H60  1  0.16690823  0.22660983  0.45370488  1
  Cu  Cu61  1  0.38224748  0.40530009  0.37490183  1
  H  H62  1  0.08946979  0.24910589  0.29837059  1
  H  H63  1  0.05386886  0.36126353  0.26369816  1
  C  C64  1  0.26882959  0.32706629  0.43894781  1
  N  N65  1  0.07823430  0.43043853  0.31403697  1
  C  C66  1  0.48167969  0.49857286  0.31489293  1
  O  O67  1  0.05688427  0.33146340  0.39508011  1
  O  O68  1  0.18157845  0.48254076  0.42193167  1
  C  C69  1  0.09635761  0.20396441  0.27152558  1
  C  C70  1  0.20241842  0.00482895  0.44494141  1
  C  C71  1  0.16439002  0.01102240  0.37995168  1
  O  O72  1  0.49615931  0.07413279  0.32386147  1
  H  H73  1  0.00736547  0.13671132  0.29901671  1
  C  C74  1  0.47894704  0.02982605  0.36279534  1
  C  C75  1  0.00786268  0.38539781  0.29981819  1
  O  O76  1  0.46739153  0.25005825  0.27113125  1
  O  O77  1  0.03000956  0.27516878  0.70504546  1
  H  H78  1  0.22102686  0.40210668  0.69283085  1
  H  H79  1  0.23236778  0.24706392  0.57099323  1
  C  C80  1  0.19462844  0.10963382  0.73211384  1
  C  C81  1  0.46162488  0.27264588  0.51851794  1
  H  H82  1  0.40205176  0.24757262  0.60957222  1
  H  H83  1  0.05847008  0.10356691  0.70207271  1
  H  H84  1  0.29601189  0.44833413  0.73429795  1
  H  H85  1  0.28321128  0.32839821  0.56463355  1
  O  O86  1  0.41508768  0.06886188  0.58703943  1
  C  C87  1  0.26270998  0.44502123  0.68553549  1
  H  H88  1  0.06448947  0.27925371  0.58484676  1
  O  O89  1  0.32765996  0.46362253  0.58019141  1
  C  C90  1  0.38414613  0.24354688  0.55756740  1
  H  H91  1  0.17669942  0.03210586  0.54132334  1
  H  H92  1  0.07410828  0.43812072  0.62377125  1
  H  H93  1  0.10128709  0.03683826  0.64768334  1
  N  N94  1  0.10387199  0.45871190  0.58388635  1
  H  H95  1  0.38357989  0.19305748  0.54737031  1
  C  C96  1  0.37337116  0.05722831  0.53890352  1
  O  O97  1  0.39364899  0.40003477  0.64928562  1
  H  H98  1  0.13481343  0.41989278  0.56219506  1
  C  C99  1  0.28808083  0.27433564  0.54668811  1
  C  C100  1  0.32700857  0.43379781  0.63476904  1
  O  O101  1  0.11470812  0.15917687  0.55002000  1
  O  O102  1  0.47264153  0.32971235  0.51490592  1
  Cu  Cu103  1  0.22614980  0.13509073  0.52819277  1
  C  C104  1  0.10079913  0.12693743  0.73949013  1
  H  H105  1  0.08985921  0.17984874  0.73961915  1
  C  C106  1  0.21922540  0.05735704  0.69597239  1
  H  H107  1  0.28175446  0.03409466  0.69272248  1
  Cu  Cu108  1  0.42826491  0.49210559  0.54392559  1
  N  N109  1  0.16269519  0.01938799  0.65935208  1
  Cu  Cu110  1  0.48121016  0.38007858  0.58715104  1
  C  C111  1  0.04939869  0.17029281  0.51218493  1
  H  H112  1  0.14178372  0.49726098  0.71144413  1
  O  O113  1  0.33267751  0.10340108  0.50721664  1
  C  C114  1  0.31986719  0.33696545  0.85377762  1
  O  O115  1  0.38955993  0.32341334  0.88889381  1
  C  C116  1  0.07581773  0.10596560  0.81476437  1
  C  C117  1  0.07172436  0.30318656  0.88741975  1
  N  N118  1  0.23107108  0.23662754  0.82518551  1
  H  H119  1  0.16253621  0.38453584  0.88544199  1
  H  H120  1  0.08919162  0.28151054  0.93592212  1
  C  C121  1  0.23798331  0.29088954  0.86776722  1
  O  O122  1  0.08661819  0.12230598  0.98069203  1
  N  N123  1  0.46002203  0.44652947  0.92540622  1
  O  O124  1  0.31218388  0.38619673  0.82730388  1
  H  H125  1  0.20456765  0.19540213  0.83459700  1
  O  O126  1  0.08224654  0.05508335  0.83766091  1
  H  H127  1  0.40974277  0.46028228  0.89403521  1
  C  C128  1  0.15606880  0.33564036  0.86297567  1
  H  H129  1  0.14727914  0.34562433  0.80894143  1
  H  H130  1  0.24990234  0.26069699  0.91397013  1
  H  H131  1  0.05305523  0.26196700  0.85866310  1
  O  O132  1  0.04652062  0.15301063  0.84842766  1
  Cu  Cu133  1  0.42526201  0.35935521  0.96799106  1
  H  H134  1  0.41469548  0.23862957  0.96299974  1
  H  H135  1  0.22584913  0.24059502  0.77582236  1
  C  C136  1  0.48526238  0.49248849  0.97727432  1
  H  H137  1  0.24780642  0.13560442  0.75729898  1
  O  O138  1  0.18406261  0.19824964  0.99905292  1
  O  O139  1  0.26731954  0.56162257  0.24091411  1
  O  O140  1  0.38886795  0.60385705  0.18826066  1
  C  C141  1  0.22991525  0.58984428  0.06145826  1
  O  O142  1  0.38660087  0.95265924  0.20718025  1
  H  H143  1  0.39490376  0.82186131  0.13597684  1
  O  O144  1  0.10380026  0.94514147  0.17795940  1
  C  C145  1  0.11799221  0.51136572  0.03540048  1
  C  C146  1  0.26840607  0.77422869  0.21177022  1
  C  C147  1  0.28284276  0.84587779  0.20413460  1
  H  H148  1  0.09329155  0.53269970  0.08038067  1
  O  O149  1  0.01004587  0.52170044  0.18558400  1
  C  C150  1  0.34154699  0.85995098  0.14242151  1
  H  H151  1  0.30260121  0.86416501  0.09420602  1
  H  H152  1  0.04496943  0.53128286  0.22227386  1
  C  C153  1  0.21626822  0.52246998  0.02797862  1
  H  H154  1  0.26985105  0.75361273  0.16139498  1
  N  N155  1  0.05007366  0.78533364  0.13421038  1
  H  H156  1  0.11513306  0.77387955  0.12919071  1
  H  H157  1  0.22966289  0.58833333  0.11470513  1
  C  C158  1  0.38567018  0.92699811  0.14920572  1
  O  O159  1  0.40890318  0.95310396  0.10048506  1
  H  H160  1  0.38874079  0.71354069  0.21245443  1
  H  H161  1  0.21482518  0.86959785  0.20082554  1
  H  H162  1  0.00081607  0.71002065  0.09284744  1
  H  H163  1  0.25919629  0.98250526  0.14576904  1
  H  H164  1  0.11611056  0.75765757  0.00247304  1
  C  C165  1  0.32947433  0.58261144  0.21650847  1
  H  H166  1  0.36957244  0.59761305  0.09468254  1
  O  O167  1  0.46699315  0.68397960  0.03109687  1
  Cu  Cu168  1  0.33696083  0.69764811  0.02990480  1
  N  N169  1  0.32299442  0.60581893  0.05664609  1
  H  H170  1  0.04911864  0.83504275  0.12516410  1
  Cu  Cu171  1  0.00683522  0.78156283  0.23204134  1
  O  O172  1  0.06433026  0.98416847  0.08460753  1
  C  C173  1  0.17912932  0.64884742  0.03283633  1
  C  C174  1  0.12068390  0.97878113  0.13157821  1
  N  N175  1  0.34589259  0.74271973  0.23905450  1
  O  O176  1  0.21732992  0.70500699  0.02851022  1
  H  H177  1  0.35571431  0.58807875  0.01573097  1
  C  C178  1  0.18816023  0.75237486  0.24475092  1
  C  C179  1  0.41825187  0.83656505  0.00977038  1
  H  H180  1  0.29524351  0.81612895  0.00570558  1
  O  O181  1  0.10377043  0.63929311  0.01457321  1
  H  H182  1  0.39607621  0.88418199  0.02477762  1
  N  N183  1  0.25145823  0.72154268  0.38702410  1
  Cu  Cu184  1  0.29347835  0.67532824  0.30419955  1
  H  H185  1  0.18553154  0.72664510  0.38043025  1
  H  H186  1  0.11742318  0.62754644  0.46091172  1
  O  O187  1  0.46967882  0.75465804  0.35120704  1
  O  O188  1  0.11887840  0.74126409  0.47807943  1
  C  C189  1  0.25986206  0.68939659  0.44928843  1
  H  H190  1  0.31132680  0.94081179  0.42451409  1
  H  H191  1  0.32751433  0.70876296  0.45683084  1
  O  O192  1  0.40602201  0.66263903  0.34210822  1
  H  H193  1  0.27732516  0.76612059  0.37884531  1
  O  O194  1  0.45310104  0.97695393  0.34452261  1
  H  H195  1  0.14153485  0.61501784  0.37691819  1
  C  C196  1  0.25384872  0.61409776  0.44485352  1
  H  H197  1  0.16191042  0.96656126  0.47118295  1
  O  O198  1  0.05539563  0.52570690  0.44571560  1
  H  H199  1  0.03013772  0.93590223  0.36607451  1
  C  C200  1  0.47571388  0.69858916  0.35574356  1
  O  O201  1  0.18550797  0.69729104  0.26848667  1
  O  O202  1  0.20071216  0.98202872  0.33178106  1
  C  C203  1  0.13493058  0.53061599  0.43152287  1
  H  H204  1  0.30097781  0.59015554  0.41391597  1
  H  H205  1  0.26765358  0.59345161  0.49360549  1
  C  C206  1  0.15893722  0.59807549  0.42794103  1
  H  H207  1  0.48631961  0.57781854  0.40405349  1
  C  C208  1  0.29984832  0.99099089  0.44243672  1
  H  H209  1  0.39078704  0.77044260  0.26451082  1
  Cu  Cu210  1  0.48135575  0.94462363  0.26172648  1
  C  C211  1  0.18615913  0.72316209  0.49787540  1
  H  H212  1  0.31026766  0.86707695  0.25276733  1
  Cu  Cu213  1  0.15606896  0.96232394  0.25174560  1
  O  O214  1  0.12374951  0.78834367  0.25507080  1
  Cu  Cu215  1  0.14179092  0.70424517  0.64061698  1
  O  O216  1  0.20975145  0.71777719  0.55908860  1
  C  C217  1  0.12366918  0.57470214  0.60333163  1
  C  C218  1  0.20085622  0.50231596  0.67857834  1
  C  C219  1  0.46043397  0.78632941  0.57264081  1
  O  O220  1  0.16356609  0.61883398  0.62914488  1
  N  N221  1  0.41002633  0.57251098  0.60128199  1
  O  O222  1  0.08590973  0.69539425  0.71959840  1
  H  H223  1  0.35549542  0.59613975  0.58508510  1
  H  H224  1  0.41909830  0.79143310  0.73583781  1
  C  C225  1  0.49327174  0.60867427  0.60038391  1
  O  O226  1  0.43218562  0.82379732  0.61012166  1
  H  H227  1  0.45561145  0.68603947  0.67287696  1
  C  C228  1  0.16048369  0.50883978  0.60790392  1
  O  O229  1  0.05670671  0.58291589  0.56727890  1
  H  H230  1  0.40336366  0.63294162  0.72286888  1
  H  H231  1  0.17801574  0.97459283  0.64244505  1
  H  H232  1  0.29681327  0.97219364  0.54934714  1
  C  C233  1  0.07807601  0.82131568  0.68863005  1
  H  H234  1  0.38580195  0.55157018  0.64129208  1
  O  O235  1  0.12924532  0.79726907  0.65014551  1
  H  H236  1  0.35644570  0.71045886  0.58366486  1
  C  C237  1  0.43031341  0.71475277  0.57140102  1
  Cu  Cu238  1  0.00168729  0.50782811  0.53373953  1
  H  H239  1  0.44116848  0.69536537  0.52042632  1
  H  H240  1  0.23693032  0.54816604  0.69167162  1
  C  C241  1  0.03375749  0.64636138  0.74010249  1
  O  O242  1  0.09928405  0.83980056  0.74369122  1
  H  H243  1  0.20861827  0.50130249  0.56662396  1
  C  C244  1  0.48545449  0.67674448  0.62315507  1
  H  H245  1  0.00635970  0.93285793  0.71057428  1
  H  H246  1  0.00557422  0.52716723  0.74737557  1
  H  H247  1  0.40158214  0.95785399  0.51578662  1
  C  C248  1  0.34225974  0.98873005  0.51326615  1
  Cu  Cu249  1  0.17557233  0.79006531  0.80913682  1
  O  O250  1  0.43375550  0.52411995  0.82301604  1
  C  C251  1  0.05208546  0.76605940  0.97705490  1
  C  C252  1  0.33469253  0.74470884  0.78187081  1
  H  H253  1  0.46096995  0.65825460  0.79397122  1
  H  H254  1  0.23711265  0.52525008  0.97666935  1
  H  H255  1  0.36660872  0.78512961  0.94767874  1
  H  H256  1  0.16425915  0.66571791  0.80942904  1
  C  C257  1  0.45584271  0.55486686  0.77751493  1
  O  O258  1  0.07875296  0.77733845  0.86338961  1
  C  C259  1  0.41482931  0.62035896  0.77451655  1
  C  C260  1  0.06251398  0.80461648  0.91604068  1
  O  O261  1  0.05802545  0.86305262  0.92272329  1
  C  C262  1  0.29831578  0.68855248  0.80837898  1
  C  C263  1  0.33185331  0.62985512  0.80809241  1
  O  O264  1  0.05620839  0.61520039  0.78567884  1
  H  H265  1  0.21056402  0.68344557  0.88219721  1
  H  H266  1  0.30680194  0.59024765  0.83596687  1
  O  O267  1  0.28726898  0.79491425  0.77871495  1
  N  N268  1  0.20860534  0.69671284  0.83237553  1
  H  H269  1  0.03156808  0.71759200  0.96197887  1
  N  N270  1  0.35076885  0.79008612  0.99657156  1
  H  H271  1  0.42180091  0.51709936  0.96897934  1
  O  O272  1  0.48614693  0.66546782  0.92856913  1
  H  H273  1  0.00651604  0.84798165  0.80266332  1
  H  H274  1  0.08092355  0.53693321  0.99737120  1
  O  O275  1  0.41727094  0.74851022  0.75806275  1
  Cu  Cu276  1  0.66175031  0.41604793  0.09044468  1
  O  O277  1  0.87208777  0.09171411  0.07651880  1
  O  O278  1  0.76385605  0.37458193  0.11809817  1
  C  C279  1  0.73247130  0.20552230  0.19055885  1
  C  C280  1  0.96266979  0.19337999  0.19197457  1
  H  H281  1  0.91893497  0.21941313  0.22560465  1
  C  C282  1  0.83413885  0.40665359  0.10937511  1
  C  C283  1  0.86240406  0.11759245  0.02196650  1
  O  O284  1  0.76840217  0.24142668  0.21479919  1
  H  H285  1  0.81837799  0.49122432  0.16360978  1
  O  O286  1  0.61657202  0.03203093  0.17586240  1
  H  H287  1  0.93808305  0.20772985  0.14138593  1
  O  O288  1  0.55613778  0.46676344  0.07456493  1
  C  C289  1  0.95047069  0.12499461  0.20000246  1
  O  O290  1  0.51039960  0.20574724  0.09778162  1
  Cu  Cu291  1  0.97326753  0.03497921  0.08605489  1
  Cu  Cu292  1  0.81158066  0.05190013  0.24040647  1
  O  O293  1  0.90670115  0.38637586  0.09916277  1
  H  H294  1  0.79457217  0.00058849  0.09544625  1
  H  H295  1  0.95355155  0.44913917  0.22875726  1
  C  C296  1  0.82491761  0.47809575  0.11282550  1
  O  O297  1  0.89324283  0.11095132  0.24533559  1
  O  O298  1  0.99913756  0.08974997  0.17152881  1
  Cu  Cu299  1  0.93903804  0.36147271  0.01451727  1
  N  N300  1  0.73916794  0.49824483  0.08730649  1
  H  H301  1  0.96296129  0.49339337  0.08687944  1
  O  O302  1  0.90230152  0.16508024  0.00397541  1
  H  H303  1  0.56549892  0.23382894  0.36662510  1
  H  H304  1  0.93395370  0.04664698  0.37112107  1
  H  H305  1  0.72524868  0.25322173  0.34621449  1
  C  C306  1  0.59662899  0.28142559  0.36672499  1
  C  C307  1  0.69205909  0.27308196  0.38967177  1
  O  O308  1  0.77919686  0.24692551  0.47966417  1
  O  O309  1  0.85114035  0.36471439  0.49351753  1
  C  C310  1  0.50953285  0.30214974  0.26636019  1
  C  C311  1  0.78839494  0.03136910  0.37400163  1
  C  C312  1  0.99500947  0.34088086  0.35518199  1
  O  O313  1  0.65744270  0.19154315  0.45724006  1
  C  C314  1  0.89907814  0.45648332  0.33344632  1
  H  H315  1  0.62141281  0.35350890  0.29180780  1
  C  C316  1  0.52214643  0.03586697  0.43154740  1
  H  H317  1  0.59175799  0.05499974  0.42492238  1
  Cu  Cu318  1  0.85742130  0.29477831  0.43206354  1
  O  O319  1  0.92445844  0.31259434  0.35896312  1
  C  C320  1  0.71002696  0.23537046  0.44616035  1
  C  C321  1  0.80363999  0.48103630  0.31825938  1
  H  H322  1  0.89373334  0.42047216  0.37272301  1
  H  H323  1  0.55182027  0.30536970  0.40187428  1
  N  N324  1  0.74411049  0.33230565  0.38869097  1
  H  H325  1  0.71667018  0.36922573  0.41448782  1
  O  O326  1  0.75809544  0.44720580  0.28513241  1
  H  H327  1  0.75480025  0.35250225  0.34292087  1
  C  C328  1  0.93163001  0.41956197  0.27059960  1
  O  O329  1  0.76009513  0.06981439  0.33076160  1
  H  H330  1  0.64390480  0.27379802  0.26724627  1
  C  C331  1  0.59557512  0.30470853  0.29377881  1
  O  O332  1  0.74484345  0.01643131  0.42043337  1
  C  C333  1  0.88649898  0.00737946  0.36582313  1
  C  C334  1  0.82819694  0.47796188  0.49033583  1
  H  H335  1  0.87219962  0.39019207  0.25355314  1
  H  H336  1  0.94464360  0.49341615  0.35030501  1
  H  H337  1  0.96285146  0.01602234  0.28246963  1
  C  C338  1  0.88083649  0.41923208  0.49132806  1
  H  H339  1  0.68656915  0.44751759  0.48474763  1
  H  H340  1  0.65083272  0.49938874  0.28908613  1
  H  H341  1  0.98685407  0.20363427  0.33328659  1
  H  H342  1  0.82252211  0.49431292  0.43742713  1
  N  N343  1  0.90127329  0.00183570  0.29474601  1
  O  O344  1  0.96188725  0.42838005  0.49841388  1
  O  O345  1  0.50478504  0.23437456  0.48216315  1
  Cu  Cu346  1  0.55725374  0.05541770  0.25129140  1
  C  C347  1  0.64326571  0.43475665  0.61689025  1
  H  H348  1  0.99599630  0.30960838  0.52083767  1
  O  O349  1  0.64197803  0.12233615  0.56717902  1
  C  C350  1  0.68769527  0.13449835  0.61650494  1
  H  H351  1  0.90129145  0.33489488  0.61802642  1
  H  H352  1  0.78705686  0.28945629  0.59430279  1
  N  N353  1  0.83651042  0.25506122  0.60274677  1
  C  C354  1  0.77078011  0.02904487  0.59971306  1
  C  C355  1  0.74391702  0.08502451  0.64387529  1
  C  C356  1  0.92382225  0.28315925  0.61545201  1
  O  O357  1  0.92083958  0.49984940  0.61960462  1
  O  O358  1  0.60336496  0.38541804  0.60397098  1
  C  C359  1  0.84838479  0.05135728  0.55532864  1
  H  H360  1  0.83703383  0.08750687  0.72082797  1
  C  C361  1  0.94658533  0.02573288  0.58268803  1
  C  C362  1  0.93133256  0.47816640  0.67395316  1
  Cu  Cu363  1  0.58034337  0.18413733  0.52652691  1
  C  C364  1  0.97981594  0.20688999  0.54132590  1
  O  O365  1  0.61153227  0.47986633  0.65027753  1
  H  H366  1  0.83172054  0.22292716  0.56783646  1
  H  H367  1  0.84337469  0.03497508  0.50327892  1
  H  H368  1  0.88607096  0.10342951  0.65368847  1
  Cu  Cu369  1  0.79728299  0.20433003  0.68292716  1
  N  N370  1  0.82519253  0.10635214  0.67555835  1
  H  H371  1  0.96063069  0.18449513  0.58733938  1
  O  O372  1  0.69612244  0.18987804  0.64081885  1
  C  C373  1  0.99777302  0.27531225  0.56163243  1
  H  H374  1  0.76475925  0.39900678  0.58432076  1
  Cu  Cu375  1  0.62381529  0.49848955  0.73602952  1
  H  H376  1  0.83984896  0.10367327  0.55263236  1
  O  O377  1  0.93465429  0.41947989  0.68842079  1
  H  H378  1  0.71539578  0.06658002  0.69239273  1
  O  O379  1  0.98068540  0.05168394  0.63097124  1
  O  O380  1  0.90419222  0.22292833  0.71494256  1
  C  C381  1  0.73126579  0.47613545  0.51832524  1
  H  H382  1  0.59694334  0.01390350  0.54695729  1
  H  H383  1  0.63675160  0.32036196  0.74115313  1
  C  C384  1  0.95955033  0.26023161  0.68275175  1
  H  H385  1  0.76594196  0.48081016  0.61759284  1
  H  H386  1  0.71446569  0.01376231  0.56849820  1
  C  C387  1  0.72735589  0.44547130  0.58557806  1
  O  O388  1  0.73140273  0.45025273  0.74742850  1
  H  H389  1  0.54679883  0.39143569  0.71311671  1
  H  H390  1  0.91889804  0.20308548  0.51097040  1
  O  O391  1  0.65648544  0.13501582  0.82720556  1
  H  H392  1  0.77542674  0.24404518  0.81084182  1
  Cu  Cu393  1  0.97979839  0.15839196  0.92392914  1
  C  C394  1  0.64088547  0.36975639  0.96316492  1
  O  O395  1  0.79933436  0.36545981  0.78650425  1
  H  H396  1  0.89851620  0.18116449  0.82372506  1
  H  H397  1  0.74301481  0.37227644  0.89288411  1
  H  H398  1  0.77978228  0.19617391  0.92889419  1
  C  C399  1  0.64507414  0.36256413  0.77603214  1
  O  O400  1  0.72338666  0.22068192  0.78915021  1
  H  H401  1  0.72233728  0.11365110  0.98832294  1
  O  O402  1  0.99124612  0.39105470  0.84844695  1
  H  H403  1  0.74007299  0.06466428  0.88359423  1
  N  N404  1  0.87615887  0.19287073  0.86990577  1
  C  C405  1  0.72199725  0.16799713  0.82945101  1
  Cu  Cu406  1  0.91339838  0.39155028  0.78124525  1
  C  C407  1  0.79263576  0.16289989  0.88503154  1
  H  H408  1  0.88352049  0.24054170  0.86721392  1
  N  N409  1  0.91012337  0.48965025  0.79330073  1
  H  H410  1  0.54855251  0.34126163  0.85168506  1
  H  H411  1  0.51592280  0.43772234  0.89510182  1
  N  N412  1  0.57546394  0.40662251  0.75652993  1
  H  H413  1  0.85687571  0.06721618  0.88910063  1
  H  H414  1  0.65881233  0.43175876  0.88547274  1
  C  C415  1  0.67084610  0.37933250  0.89458081  1
  C  C416  1  0.62330683  0.33595804  0.84363046  1
  H  H417  1  0.64127813  0.28249198  0.84632907  1
  O  O418  1  0.57436078  0.34119319  0.97466326  1
  C  C419  1  0.79643601  0.09178074  0.90798905  1
  C  C420  1  0.73187078  0.39381227  0.76714025  1
  C  C421  1  0.99519776  0.34536975  0.88740489  1
  H  H422  1  0.51594058  0.41418462  0.77898549  1
  O  O423  1  0.93455211  0.33220266  0.92881996  1
  C  C424  1  0.78801696  0.09102895  0.98244666  1
  H  H425  1  0.78100597  0.04081680  0.99756555  1
  O  O426  1  0.68707409  0.40626768  0.99896131  1
  O  O427  1  0.64125028  0.61761412  0.13723835  1
  O  O428  1  0.73438157  0.98861377  0.22410706  1
  H  H429  1  0.62447207  0.82355645  0.12900901  1
  O  O430  1  0.82439422  0.76936224  0.10299301  1
  H  H431  1  0.59434747  0.71678229  0.08823104  1
  C  C432  1  0.90362590  0.58441092  0.11800860  1
  C  C433  1  0.89353641  0.76694392  0.12864518  1
  C  C434  1  0.59615858  0.71856899  0.14415459  1
  C  C435  1  0.81589825  0.95297285  0.08400654  1
  C  C436  1  0.89864832  0.51622134  0.08314183  1
  H  H437  1  0.83795012  0.60697928  0.12041551  1
  C  C438  1  0.75529496  0.90107471  0.11746789  1
  O  O439  1  0.89984267  0.76950530  0.19421359  1
  C  C440  1  0.67426515  0.94112406  0.12947371  1
  H  H441  1  0.99004839  0.84503274  0.02888788  1
  H  H442  1  0.61153388  0.91557816  0.13951595  1
  H  H443  1  0.88670121  0.52436601  0.03081073  1
  H  H444  1  0.78293883  0.88279516  0.16543171  1
  H  H445  1  0.71724970  0.77199558  0.14442749  1
  C  C446  1  0.64875814  0.78017564  0.16132119  1
  C  C447  1  0.94809109  0.57338810  0.18464881  1
  H  H448  1  0.61272678  0.53609582  0.22494881  1
  H  H449  1  0.52917202  0.72211571  0.16647357  1
  H  H450  1  0.79485761  0.79307040  0.23252323  1
  O  O451  1  0.54004071  0.87584027  0.23177830  1
  H  H452  1  0.74700248  0.85915084  0.08276736  1
  C  C453  1  0.64446589  0.66045692  0.17315380  1
  H  H454  1  0.93361160  0.92454494  0.11026561  1
  C  C455  1  0.98424835  0.79327271  0.02284127  1
  H  H456  1  0.66194383  0.96610611  0.08045512  1
  C  C457  1  0.98169777  0.75939036  0.09309348  1
  H  H458  1  0.94463304  0.61480853  0.08434599  1
  C  C459  1  0.64886738  0.79448052  0.23496061  1
  H  H460  1  0.71166843  0.53357221  0.11574849  1
  C  C461  1  0.83093115  0.93539795  0.00711063  1
  C  C462  1  0.67573515  0.99011366  0.18032306  1
  N  N463  1  0.89379723  0.96264815  0.12452385  1
  H  H464  1  0.55676907  0.57780510  0.05369807  1
  O  O465  1  0.93765038  0.60605322  0.23105832  1
  H  H466  1  0.54891832  0.91411710  0.03565645  1
  O  O467  1  0.67857041  0.65924176  0.23143858  1
  H  H468  1  0.88595233  0.95554160  0.17451650  1
  H  H469  1  0.73648327  0.51944615  0.03722827  1
  C  C470  1  0.56880568  0.86980773  0.01169481  1
  C  C471  1  0.56706640  0.59589989  0.00172298  1
  C  C472  1  0.50880804  0.82222734  0.00049524  1
  H  H473  1  0.83820772  0.80276136  0.47399872  1
  C  C474  1  0.76103892  0.72197449  0.47905164  1
  O  O475  1  0.78370079  0.53852979  0.33783681  1
  H  H476  1  0.60788882  0.57105892  0.40511141  1
  N  N477  1  0.61979479  0.54243388  0.27524455  1
  O  O478  1  0.87075418  0.83938612  0.34957992  1
  C  C479  1  0.74981435  0.74168887  0.40301518  1
  O  O480  1  0.71386674  0.79366341  0.39041035  1
  C  C481  1  0.93982866  0.86690046  0.33272947  1
  O  O482  1  0.97903796  0.85965526  0.27811372  1
  H  H483  1  0.92084312  0.96583561  0.46180308  1
  C  C484  1  0.97358395  0.90568810  0.38527393  1
  H  H485  1  0.89725295  0.95484971  0.28263816  1
  Cu  Cu486  1  0.75332461  0.85854342  0.32979903  1
  C  C487  1  0.90251273  0.95048292  0.41371574  1
  O  O488  1  0.63905296  0.87517963  0.31139578  1
  C  C489  1  0.55018017  0.58935395  0.37703173  1
  O  O490  1  0.78089340  0.70637836  0.36323709  1
  H  H491  1  0.60240966  0.67991190  0.41472555  1
  C  C492  1  0.53793186  0.55543326  0.31157470  1
  C  C493  1  0.56208648  0.66364391  0.37240301  1
  C  C494  1  0.53357490  0.96978455  0.46195473  1
  H  H495  1  0.89564328  0.73001768  0.47097639  1
  C  C496  1  0.60640419  0.85232332  0.25958900  1
  H  H497  1  0.83920405  0.92739108  0.42192241  1
  Cu  Cu498  1  0.72764733  0.60135063  0.28408845  1
  H  H499  1  0.61476966  0.67776242  0.33443093  1
  H  H500  1  0.51644270  0.92726037  0.43590852  1
  C  C501  1  0.84193820  0.75508995  0.49596423  1
  H  H502  1  0.50818628  0.58754390  0.27157717  1
  H  H503  1  0.75205325  0.74194755  0.28427706  1
  N  N504  1  0.73784259  0.78643013  0.26139245  1
  H  H505  1  0.99961733  0.87426827  0.42582175  1
  H  H506  1  0.75735771  0.67044013  0.48273185  1
  H  H507  1  0.62571806  0.75363000  0.26222871  1
  H  H508  1  0.87362944  0.56570582  0.46202003  1
  O  O509  1  0.68805696  0.65856776  0.66226754  1
  H  H510  1  0.54730153  0.70197496  0.61998346  1
  C  C511  1  0.57476475  0.97012369  0.51904723  1
  H  H512  1  0.85573361  0.71928264  0.59476569  1
  H  H513  1  0.94122196  0.79468024  0.68792373  1
  H  H514  1  0.53002740  0.58171832  0.64061199  1
  O  O515  1  0.51947432  0.79584197  0.52721855  1
  O  O516  1  0.79362469  0.61921892  0.59039312  1
  C  C517  1  0.80641155  0.81823395  0.59220302  1
  O  O518  1  0.75458148  0.84883643  0.55016484  1
  H  H519  1  0.97068799  0.62676194  0.64841440  1
  C  C520  1  0.73946188  0.63798234  0.62666407  1
  O  O521  1  0.80503620  0.83148916  0.64886428  1
  C  C522  1  0.94924951  0.63852745  0.69808655  1
  H  H523  1  0.83682506  0.57492880  0.68675425  1
  H  H524  1  0.90575698  0.92238131  0.66401909  1
  C  C525  1  0.53316264  0.58992549  0.53721609  1
  O  O526  1  0.98597965  0.98611008  0.54924360  1
  C  C527  1  0.86846902  0.76424556  0.56648282  1
  N  N528  1  0.59358020  0.91564516  0.56040157  1
  H  H529  1  0.93783407  0.78074960  0.57263012  1
  N  N530  1  0.68309935  0.73516451  0.52070975  1
  H  H531  1  0.84844256  0.56642864  0.53892141  1
  H  H532  1  0.53013271  0.90066588  0.57576259  1
  H  H533  1  0.62026465  0.93047928  0.60273201  1
  O  O534  1  0.52545431  0.52978777  0.51770718  1
  H  H535  1  0.97969446  0.84109011  0.61939060  1
  H  H536  1  0.91423098  0.68385114  0.68991706  1
  N  N537  1  0.87398130  0.53768654  0.50089887  1
  H  H538  1  0.79369304  0.98524914  0.62657440  1
  Cu  Cu539  1  0.63751383  0.82513914  0.53120492  1
  C  C540  1  0.95005334  0.89915147  0.70021814  1
  H  H541  1  0.69523349  0.72270547  0.56917213  1
  C  C542  1  0.98484469  0.83693292  0.67305362  1
  C  C543  1  0.88769475  0.58276597  0.72367544  1
  C  C544  1  0.93863609  0.51955224  0.73163544  1
  O  O545  1  0.51091224  0.53715100  0.73325159  1
  H  H546  1  0.62642886  0.70544901  0.50905133  1
  O  O547  1  0.57590784  0.62846802  0.50869224  1
  H  H548  1  0.70393316  0.52774483  0.51468204  1
  O  O549  1  0.80084752  0.98176906  0.75870395  1
  C  C550  1  0.85274574  0.95348050  0.79068988  1
  H  H551  1  0.91677889  0.82234841  0.83928666  1
  N  N552  1  0.94851814  0.86199816  0.81937382  1
  H  H553  1  0.85651014  0.59517562  0.76963400  1
  O  O554  1  0.87813723  0.97011595  0.84850266  1
  H  H555  1  0.63378785  0.61568105  0.99846804  1
  O  O556  1  0.77345310  0.56610341  0.96862591  1
  H  H557  1  0.55368651  0.54902833  0.90429297  1
  O  O558  1  0.87615074  0.74250937  0.82447294  1
  O  O559  1  0.90946338  0.92552990  0.98508830  1
  H  H560  1  0.84907961  0.50054891  0.80848836  1
  C  C561  1  0.75413268  0.55719018  0.91245463  1
  O  O562  1  0.73344307  0.54831881  0.85910528  1
  Cu  Cu563  1  0.95946742  0.92303630  0.89788332  1
  H  H564  1  0.93399929  0.72980552  0.82571536  1
  H  H565  1  0.84774078  0.70499957  0.80836617  1
  H  H566  1  0.52723554  0.78101789  0.96983928  1
  C  C567  1  0.50249642  0.65177660  0.98333478  1
  C  C568  1  0.56050151  0.53360854  0.95667973  1
  C  C569  1  0.89898212  0.88969172  0.76595955  1
  H  H570  1  0.95026353  0.50603464  0.83166639  1
  H  H571  1  0.62373286  0.50699702  0.96198709  1
  H  H572  1  0.64027556  0.86516557  0.99916525  1
  H  H573  1  0.91760857  0.78445388  0.99984026  1
  O  O574  1  0.76797609  0.92273081  0.97687270  1
  H  H575  1  0.85027255  0.85220745  0.76329625  1
