# generated using pymatgen
data_CuH7C5NO4
_symmetry_space_group_name_H-M   'P 1'
_cell_length_a   24.62406825
_cell_length_b   15.99771086
_cell_length_c   16.63103194
_cell_angle_alpha   90.00000000
_cell_angle_beta   90.00000000
_cell_angle_gamma   90.00000000
_symmetry_Int_Tables_number   1
_chemical_formula_structural   CuH7C5NO4
_chemical_formula_sum   'Cu32 H224 C160 N32 O128'
_cell_volume   6551.44119155
_cell_formula_units_Z   32
loop_
 _symmetry_equiv_pos_site_id
 _symmetry_equiv_pos_as_xyz
  1  'x, y, z'
loop_
 _atom_site_type_symbol
 _atom_site_label
 _atom_site_symmetry_multiplicity
 _atom_site_fract_x
 _atom_site_fract_y
 _atom_site_fract_z
 _atom_site_occupancy
  C  C0  1  0.18641737  0.47616312  0.21684718  1
  H  H1  1  0.39285653  0.20546201  0.10651522  1
  H  H2  1  0.41970367  0.07150744  0.18142610  1
  C  C3  1  0.35647575  0.17507689  0.08907862  1
  C  C4  1  0.11101926  0.34316480  0.03815913  1
  H  H5  1  0.04726953  0.38919020  0.12734501  1
  O  O6  1  0.14593549  0.08747342  0.14849677  1
  C  C7  1  0.19297036  0.06714062  0.18018974  1
  O  O8  1  0.01706316  0.13507159  0.12294385  1
  H  H9  1  0.02063616  0.32442501  0.05007443  1
  C  C10  1  0.05284106  0.17940350  0.10015658  1
  H  H11  1  0.13588809  0.46854147  0.11055428  1
  C  C12  1  0.06835383  0.25810431  0.14004055  1
  H  H13  1  0.14844690  0.35038506  0.07709168  1
  O  O14  1  0.08735162  0.16078415  0.04370837  1
  C  C15  1  0.05712316  0.33534610  0.08731793  1
  O  O16  1  0.46897618  0.19182382  0.19855703  1
  C  C17  1  0.31246647  0.21555646  0.04695748  1
  H  H18  1  0.19124329  0.07565564  0.24761013  1
  C  C19  1  0.38402088  0.04256981  0.15225391  1
  H  H20  1  0.00726989  0.24859448  0.22706754  1
  C  C21  1  0.34922278  0.08674887  0.10617371  1
  Cu  Cu22  1  0.11333378  0.05665878  0.04457784  1
  H  H23  1  0.11120461  0.25937275  0.16404900  1
  H  H24  1  0.31243097  0.05507299  0.07744431  1
  H  H25  1  0.22235089  0.11476425  0.14883638  1
  O  O26  1  0.01425871  0.00608671  0.02525990  1
  O  O27  1  0.28150678  0.25646359  0.01199846  1
  H  H28  1  0.00373636  0.04151534  0.07291392  1
  H  H29  1  0.49494176  0.21953192  0.16009963  1
  H  H30  1  0.21952296  0.45408458  0.17622467  1
  N  N31  1  0.04697332  0.26466200  0.22191843  1
  C  C32  1  0.08470282  0.49905062  0.21374505  1
  H  H33  1  0.12056311  0.28617520  0.00150890  1
  H  H34  1  0.17719075  0.42012953  0.25169899  1
  H  H35  1  0.11482513  0.47948786  0.40642542  1
  C  C36  1  0.15188320  0.43504981  0.40761599  1
  C  C37  1  0.37095726  0.15100932  0.33967348  1
  H  H38  1  0.47542911  0.30340005  0.40038462  1
  H  H39  1  0.05010423  0.05252399  0.46414247  1
  O  O40  1  0.49002219  0.09166480  0.28701721  1
  Cu  Cu41  1  0.14144332  0.17648670  0.42568776  1
  C  C42  1  0.01180422  0.09888083  0.32390205  1
  H  H43  1  0.06397922  0.21974473  0.25778194  1
  C  C44  1  0.13206184  0.34821559  0.39963535  1
  C  C45  1  0.34026263  0.08115231  0.32476549  1
  Cu  Cu46  1  0.04220369  0.36569453  0.30403093  1
  H  H47  1  0.17608371  0.45023763  0.35357254  1
  O  O48  1  0.35539775  0.28028406  0.45071743  1
  O  O49  1  0.21697064  0.16699198  0.44925915  1
  O  O50  1  0.10966802  0.32402684  0.33558061  1
  O  O51  1  0.07619417  0.47135842  0.28256866  1
  N  N52  1  0.27927758  0.42887057  0.44147923  1
  O  O53  1  0.39749908  0.43765354  0.41077397  1
  H  H54  1  0.27853037  0.49584533  0.44586916  1
  H  H55  1  0.39232456  0.09930214  0.44933292  1
  C  C56  1  0.18555951  0.45474955  0.48205220  1
  O  O57  1  0.13635730  0.06595457  0.37042342  1
  H  H58  1  0.27235757  0.41805289  0.37982091  1
  H  H59  1  0.37287429  0.20370074  0.29780120  1
  C  C60  1  0.40447365  0.15749433  0.41782557  1
  H  H61  1  0.44859487  0.15195535  0.40160895  1
  C  C62  1  0.39184152  0.23028456  0.46822021  1
  N  N63  1  0.33152501  0.00913506  0.37541707  1
  H  H64  1  0.32017535  0.07193388  0.26534140  1
  H  H65  1  0.23342693  0.33716370  0.45955394  1
  O  O66  1  0.25648075  0.05405102  0.49337907  1
  O  O67  1  0.13671207  0.29748532  0.45674296  1
  O  O68  1  0.00837136  0.42621095  0.48336399  1
  O  O69  1  0.08607509  0.15549886  0.49801357  1
  Cu  Cu70  1  0.35466423  0.40182574  0.49613281  1
  C  C71  1  0.23741544  0.39626626  0.49300793  1
  C  C72  1  0.24137567  0.09741286  0.65534099  1
  C  C73  1  0.48734671  0.28057587  0.71220200  1
  O  O74  1  0.30651474  0.37621293  0.58693518  1
  H  H75  1  0.21546417  0.10813367  0.70934387  1
  O  O76  1  0.22136244  0.37413738  0.62970912  1
  H  H77  1  0.46070058  0.36270331  0.62463355  1
  C  C78  1  0.11401856  0.03451270  0.73512898  1
  C  C79  1  0.07861074  0.35950703  0.71106195  1
  H  H80  1  0.42517507  0.36929671  0.70028362  1
  C  C81  1  0.08602242  0.07875702  0.66628161  1
  H  H82  1  0.09822311  0.14403652  0.65330714  1
  C  C83  1  0.21244108  0.14399156  0.58558331  1
  H  H84  1  0.21745650  0.20941465  0.60009415  1
  C  C85  1  0.02049576  0.34327869  0.69155410  1
  H  H86  1  0.10065253  0.38734744  0.65667589  1
  O  O87  1  0.44158610  0.16428310  0.66374089  1
  O  O88  1  0.41810981  0.24031783  0.53307948  1
  N  N89  1  0.44505804  0.32662899  0.66803283  1
  H  H90  1  0.46810802  0.05132897  0.66224281  1
  N  N91  1  0.33779749  0.13150182  0.61155982  1
  C  C92  1  0.10928125  0.28782809  0.74544271  1
  H  H93  1  0.36057739  0.07928097  0.61305516  1
  C  C94  1  0.05909948  0.09134498  0.51977492  1
  H  H95  1  0.32041161  0.12885750  0.55643663  1
  H  H96  1  0.32114720  0.08412221  0.70881742  1
  Cu  Cu97  1  0.21866817  0.33033290  0.73331202  1
  H  H98  1  0.00573384  0.27946751  0.71206302  1
  N  N99  1  0.03333072  0.11097806  0.69033749  1
  C  C100  1  0.29804827  0.13214241  0.67827118  1
  C  C101  1  0.25613564  0.38018049  0.57575220  1
  C  C102  1  0.30163310  0.20458354  0.72924772  1
  Cu  Cu103  1  0.38431781  0.24007007  0.63395683  1
  C  C104  1  0.08341967  0.02870029  0.59161488  1
  H  H105  1  0.16715247  0.12948959  0.58722003  1
  C  C106  1  0.01321949  0.33084180  0.59539863  1
  O  O107  1  0.34625132  0.23924836  0.72928606  1
  H  H108  1  0.16263803  0.44583866  0.53950099  1
  H  H109  1  0.01662527  0.10367924  0.54250043  1
  C  C110  1  0.48515481  0.19096665  0.69531354  1
  H  H111  1  0.04951105  0.29935861  0.57596266  1
  H  H112  1  0.01906037  0.15988878  0.65734738  1
  H  H113  1  0.25384075  0.02865693  0.64406697  1
  H  H114  1  0.12454706  0.01387553  0.57292629  1
  C  C115  1  0.00482421  0.41834236  0.55355199  1
  O  O116  1  0.15242180  0.27087957  0.71077631  1
  C  C117  1  0.23395483  0.12248808  0.50565817  1
  C  C118  1  0.44320134  0.15697809  0.88655068  1
  O  O119  1  0.14354052  0.47007785  0.96783646  1
  O  O120  1  0.26077618  0.23417160  0.76557035  1
  H  H121  1  0.07640524  0.40867101  0.82451086  1
  H  H122  1  0.37435953  0.46725875  0.96044040  1
  O  O123  1  0.27032823  0.40518609  0.77892827  1
  O  O124  1  0.09396521  0.24353745  0.80441494  1
  H  H125  1  0.35549322  0.16948341  0.84452207  1
  H  H126  1  0.45625759  0.21787716  0.86037268  1
  H  H127  1  0.34988801  0.40028427  0.88934960  1
  C  C128  1  0.48988365  0.09926980  0.88606134  1
  O  O129  1  0.10144645  0.06592217  0.80411899  1
  H  H130  1  0.04232714  0.37434910  0.96176221  1
  Cu  Cu131  1  0.04794909  0.14859963  0.81092677  1
  C  C132  1  0.39173635  0.12531658  0.84583799  1
  C  C133  1  0.43377021  0.44361032  0.86110866  1
  H  H134  1  0.47119319  0.29560044  0.77163039  1
  C  C135  1  0.37539893  0.45687840  0.89557392  1
  C  C136  1  0.25489545  0.47437114  0.80559930  1
  O  O137  1  0.46768906  0.40675674  0.89693401  1
  C  C138  1  0.10927924  0.42192250  0.98250209  1
  O  O139  1  0.05905012  0.42356652  0.93697901  1
  H  H140  1  0.43533861  0.17277525  0.95191921  1
  H  H141  1  0.39867214  0.10850794  0.78180562  1
  N  N142  1  0.08303288  0.43177786  0.76502347  1
  O  O143  1  0.44044830  0.47216535  0.78759398  1
  H  H144  1  0.01409516  0.01976293  0.91222768  1
  N  N145  1  0.00011496  0.04998254  0.86248519  1
  O  O146  1  0.48604417  0.04587610  0.83332756  1
  H  H147  1  0.28024739  0.49886585  0.92566741  1
  N  N148  1  0.33132670  0.02987595  0.92325234  1
  C  C149  1  0.37458650  0.03107492  0.86231526  1
  H  H150  1  0.32096497  0.08783539  0.94586927  1
  H  H151  1  0.12152483  0.45850899  0.76822280  1
  O  O152  1  0.12276157  0.70436254  0.13447140  1
  C  C153  1  0.07633856  0.68091847  0.11535149  1
  O  O154  1  0.28790846  0.78804871  0.03611916  1
  O  O155  1  0.30828136  0.69631311  0.16394415  1
  H  H156  1  0.14845834  0.92953180  0.22884639  1
  N  N157  1  0.17269230  0.84143856  0.15855962  1
  O  O158  1  0.03650674  0.68872494  0.15962732  1
  H  H159  1  0.20052451  0.82280167  0.11311775  1
  H  H160  1  0.13869065  0.85532812  0.12437853  1
  O  O161  1  0.40707597  0.91505475  0.21575055  1
  Cu  Cu162  1  0.15835918  0.73818049  0.22033971  1
  H  H163  1  0.40459696  0.74856504  0.11221972  1
  C  C164  1  0.21804622  0.97136863  0.16947507  1
  C  C165  1  0.06381845  0.65041154  0.03140308  1
  H  H166  1  0.26216425  0.97677336  0.18343186  1
  O  O167  1  0.35404045  0.57948218  0.18955115  1
  O  O168  1  0.33646561  0.91805762  0.12676572  1
  O  O169  1  0.14530027  0.95081481  0.02932740  1
  H  H170  1  0.14765009  0.56733480  0.15013031  1
  H  H171  1  0.42946481  0.96454962  0.23658398  1
  Cu  Cu172  1  0.31965436  0.80975729  0.14076415  1
  H  H173  1  0.41520368  0.83684638  0.06083427  1
  O  O174  1  0.04734403  0.52801833  0.17057754  1
  H  H175  1  0.08452745  0.58579690  0.02959233  1
  N  N176  1  0.38789881  0.78766373  0.06838462  1
  C  C177  1  0.19061401  0.90809443  0.21847196  1
  C  C178  1  0.37516429  0.95570968  0.16184569  1
  C  C179  1  0.33473763  0.64538628  0.21277268  1
  H  H180  1  0.21751843  0.94700206  0.10315492  1
  O  O181  1  0.48474876  0.93528659  0.02110369  1
  C  C182  1  0.13707853  0.50267733  0.17023783  1
  H  H183  1  0.38141695  0.69748922  0.00010261  1
  O  O184  1  0.17367786  0.95851837  0.42983987  1
  N  N185  1  0.18688921  0.59371764  0.31912609  1
  O  O186  1  0.25087515  0.90455486  0.32427102  1
  H  H187  1  0.23736084  0.69173342  0.45156683  1
  H  H188  1  0.46386596  0.69823597  0.40031818  1
  H  H189  1  0.00744773  0.89270224  0.39253369  1
  H  H190  1  0.40506191  0.69599683  0.44598181  1
  N  N191  1  0.43660763  0.65540020  0.42762035  1
  C  C192  1  0.34266201  0.67646174  0.29923492  1
  H  H193  1  0.35531104  0.99375238  0.42557531  1
  Cu  Cu194  1  0.25186431  0.97975950  0.40807123  1
  C  C195  1  0.41880126  0.58213919  0.38173521  1
  O  O196  1  0.08703813  0.74935160  0.34286333  1
  C  C197  1  0.04573936  0.90907341  0.42890768  1
  H  H198  1  0.37346816  0.72781314  0.30200712  1
  C  C199  1  0.07983098  0.74745696  0.41429503  1
  O  O200  1  0.20188774  0.78888153  0.29816699  1
  C  C201  1  0.08760151  0.94310180  0.37247824  1
  H  H202  1  0.03413862  0.95777503  0.47468906  1
  O  O203  1  0.36568381  0.79480257  0.41903812  1
  O  O204  1  0.08501739  0.66844504  0.45313298  1
  H  H205  1  0.33596060  0.58542145  0.40243899  1
  H  H206  1  0.45092151  0.59494830  0.33756264  1
  C  C207  1  0.36125949  0.59801290  0.35111179  1
  H  H208  1  0.35262504  0.54252267  0.31027472  1
  C  C209  1  0.21486096  0.86580409  0.28668109  1
  H  H210  1  0.10242024  0.88599021  0.33622928  1
  H  H211  1  0.11042940  0.84646856  0.49425892  1
  H  H212  1  0.14628704  0.57598506  0.31862010  1
  H  H213  1  0.21811920  0.63373370  0.33705672  1
  C  C214  1  0.07079939  0.82722334  0.46717533  1
  H  H215  1  0.33984862  0.95836760  0.33696705  1
  H  H216  1  0.30491600  0.70197451  0.32529160  1
  C  C217  1  0.42494088  0.50203703  0.42248190  1
  C  C218  1  0.36508840  0.85088786  0.46455090  1
  O  O219  1  0.46607869  0.50469472  0.46784952  1
  H  H220  1  0.06108014  0.97834421  0.33344400  1
  C  C221  1  0.13331228  0.99406891  0.40102501  1
  H  H222  1  0.19354128  0.52246712  0.48022894  1
  C  C223  1  0.21165126  0.54667753  0.26811534  1
  H  H224  1  0.25555235  0.56469917  0.25887246  1
  H  H225  1  0.28060995  0.58183233  0.56295887  1
  O  O226  1  0.09116109  0.68997271  0.65382892  1
  N  N227  1  0.20971004  0.64133144  0.68453992  1
  C  C228  1  0.11547248  0.62351576  0.64798595  1
  C  C229  1  0.23462907  0.64826567  0.50524702  1
  H  H230  1  0.01540395  0.67015912  0.72465667  1
  H  H231  1  0.24854700  0.61985504  0.68264953  1
  O  O232  1  0.09440658  0.55420427  0.66189453  1
  C  C233  1  0.17349758  0.61726175  0.61772274  1
  Cu  Cu234  1  0.03358954  0.53019389  0.73048165  1
  C  C235  1  0.18761646  0.65809848  0.54315308  1
  H  H236  1  0.02504081  0.85535666  0.57278669  1
  H  H237  1  0.05889233  0.97074636  0.60418587  1
  C  C238  1  0.35071718  0.61796031  0.68417225  1
  O  O239  1  0.36558665  0.55506707  0.65544938  1
  H  H240  1  0.08274500  0.82396849  0.59069304  1
  N  N241  1  0.48094669  0.99303286  0.67817788  1
  H  H242  1  0.49813206  0.99933983  0.56361822  1
  H  H243  1  0.18605217  0.55067491  0.61908795  1
  Cu  Cu244  1  0.46697419  0.60487540  0.53454130  1
  H  H245  1  0.44857206  0.96018856  0.70871229  1
  H  H246  1  0.21683831  0.70454243  0.67874116  1
  H  H247  1  0.15483182  0.70125121  0.52044455  1
  H  H248  1  0.43438455  0.88146404  0.57223592  1
  C  C249  1  0.48326226  0.72459038  0.65382153  1
  N  N250  1  0.05237139  0.81023869  0.55042675  1
  O  O251  1  0.46410730  0.70487303  0.58817044  1
  Cu  Cu252  1  0.01568971  0.71409753  0.61194976  1
  O  O253  1  0.33583083  0.68030600  0.71121526  1
  C  C254  1  0.47774691  0.87061561  0.59441087  1
  Cu  Cu255  1  0.47150450  0.56766708  0.74578851  1
  C  C256  1  0.48391805  0.81282533  0.67195260  1
  H  H257  1  0.49916454  0.83545630  0.54461404  1
  H  H258  1  0.45427446  0.82954194  0.71591604  1
  O  O259  1  0.48762207  0.50714352  0.65376104  1
  O  O260  1  0.14821758  0.98227652  0.72777075  1
  O  O261  1  0.38078500  0.96277172  0.73476662  1
  O  O262  1  0.28279362  0.60554855  0.50745751  1
  H  H263  1  0.07896108  0.68710752  0.50928188  1
  O  O264  1  0.36380317  0.90640662  0.51263972  1
  H  H265  1  0.08825382  0.82792594  0.94986657  1
  C  C266  1  0.34563722  0.53072463  0.85019447  1
  C  C267  1  0.48323821  0.65134989  0.89161313  1
  C  C268  1  0.09255384  0.80809702  0.82641321  1
  C  C269  1  0.10865533  0.86378543  0.90035997  1
  C  C270  1  0.16939322  0.87775638  0.91831835  1
  C  C271  1  0.11893852  0.72005778  0.83426547  1
  H  H272  1  0.10980594  0.83854607  0.77245994  1
  O  O273  1  0.30428937  0.79824483  0.90393405  1
  H  H274  1  0.19100379  0.81648864  0.92239137  1
  H  H275  1  0.17943003  0.94731711  0.80768064  1
  O  O276  1  0.20851181  0.50300850  0.78397423  1
  Cu  Cu277  1  0.26558085  0.95900747  0.88680384  1
  N  N278  1  0.19698163  0.89946054  0.84371069  1
  H  H279  1  0.24766518  0.62298347  0.93288704  1
  O  O280  1  0.45238038  0.62843764  0.83694543  1
  O  O281  1  0.17178114  0.72007938  0.82383290  1
  H  H282  1  0.08703502  0.92206947  0.88873656  1
  C  C283  1  0.47417616  0.73810976  0.92321961  1
  N  N284  1  0.26023015  0.60714089  0.87562262  1
  O  O285  1  0.30066221  0.96386256  0.78864807  1
  H  H286  1  0.28845330  0.65407368  0.86180851  1
  O  O287  1  0.09645889  0.65600849  0.85073136  1
  Cu  Cu288  1  0.19123006  0.60887827  0.80300375  1
  C  C289  1  0.18402077  0.93379376  0.98515516  1
  H  H290  1  0.40300811  0.77312917  0.85683566  1
  C  C291  1  0.37859034  0.76426717  0.98485173  1
  H  H292  1  0.03627545  0.54638243  0.92057040  1
  C  C293  1  0.42130183  0.78405366  0.91501291  1
  H  H294  1  0.04654094  0.80491466  0.82456952  1
  H  H295  1  0.43053626  0.85369440  0.91937493  1
  H  H296  1  0.20630382  0.85315988  0.80121442  1
  C  C297  1  0.31860755  0.78946970  0.97137376  1
  H  H298  1  0.40869649  0.99796606  0.89037590  1
  C  C299  1  0.35022690  0.98400969  0.78656928  1
  H  H300  1  0.48542279  0.73629873  0.98873144  1
  H  H301  1  0.36311475  0.58946170  0.87607078  1
  C  C302  1  0.28512309  0.52571266  0.86251340  1
  H  H303  1  0.34981812  0.52987676  0.78393983  1
  H  H304  1  0.34665912  0.99856155  0.97229201  1
  C  C305  1  0.00277338  0.58805214  0.93390599  1
  O  O306  1  0.23101455  0.96666067  0.98527939  1
  C  C307  1  0.01070786  0.64246380  0.99454786  1
  H  H308  1  0.08728928  0.68981860  0.99086847  1
  C  C309  1  0.89640083  0.38180094  0.01369137  1
  H  H310  1  0.96201277  0.33371673  0.14281818  1
  N  N311  1  0.70797714  0.20965089  0.12900483  1
  H  H312  1  0.97829603  0.44392893  0.05139906  1
  H  H313  1  0.67905457  0.18114861  0.09666515  1
  O  O314  1  0.63106654  0.33703682  0.10216824  1
  O  O315  1  0.81279176  0.04296342  0.04125635  1
  H  H316  1  0.89462546  0.36121620  0.16314653  1
  Cu  Cu317  1  0.75302054  0.11479921  0.07699783  1
  O  O318  1  0.54442726  0.32655132  0.11222437  1
  H  H319  1  0.96417048  0.07381474  0.15980590  1
  O  O320  1  0.73440593  0.33850156  0.22847075  1
  H  H321  1  0.70604944  0.17390562  0.17871935  1
  Cu  Cu322  1  0.71649989  0.29218050  0.04311190  1
  H  H323  1  0.55977362  0.32218412  0.21548436  1
  Cu  Cu324  1  0.65074070  0.27530813  0.19108074  1
  O  O325  1  0.81936611  0.28322025  0.02175738  1
  C  C326  1  0.63092557  0.00502592  0.20741889  1
  C  C327  1  0.55378215  0.09849817  0.17323593  1
  N  N328  1  0.54654492  0.10966941  0.08650343  1
  C  C329  1  0.83956289  0.35256962  0.04720114  1
  C  C330  1  0.58286331  0.33857066  0.07024621  1
  C  C331  1  0.93555606  0.38789231  0.15203333  1
  H  H332  1  0.67041341  0.43388136  0.02047513  1
  C  C333  1  0.93493271  0.43355559  0.07310192  1
  H  H334  1  0.58770518  0.14057268  0.18026376  1
  C  C335  1  0.95127053  0.43694430  0.22319754  1
  O  O336  1  0.81219553  0.39702281  0.08738577  1
  H  H337  1  0.90226953  0.00782638  0.08356387  1
  O  O338  1  0.79959394  0.16197284  0.20431267  1
  H  H339  1  0.55049333  0.17089279  0.07099379  1
  O  O340  1  0.70718327  0.03645778  0.14228408  1
  H  H341  1  0.50989436  0.09567740  0.06087438  1
  Cu  Cu342  1  0.77600910  0.26868213  0.17028970  1
  O  O343  1  0.88528520  0.13585774  0.21929553  1
  H  H344  1  0.94524193  0.27037167  0.00452851  1
  C  C345  1  0.66014970  0.01482157  0.13161768  1
  N  N346  1  0.95462562  0.01168357  0.16892322  1
  C  C347  1  0.57060953  0.00431630  0.19283592  1
  H  H348  1  0.91349363  0.49257717  0.08370879  1
  C  C349  1  0.50496149  0.12774989  0.22635227  1
  C  C350  1  0.83936010  0.15404243  0.24987998  1
  H  H351  1  0.64255028  0.05682858  0.24807517  1
  C  C352  1  0.63278974  0.20879157  0.33858981  1
  C  C353  1  0.77548767  0.13855090  0.36811449  1
  C  C354  1  0.76326835  0.11080804  0.45874182  1
  C  C355  1  0.57809177  0.26332325  0.33308312  1
  C  C356  1  0.56197371  0.29844230  0.41335239  1
  H  H357  1  0.50593642  0.34359467  0.49893986  1
  C  C358  1  0.51188656  0.31545103  0.43903179  1
  H  H359  1  0.59284379  0.31183923  0.45960478  1
  O  O360  1  0.78258401  0.35312414  0.33829070  1
  C  C361  1  0.83309988  0.13682771  0.33631462  1
  O  O362  1  0.97012859  0.39742739  0.28158937  1
  H  H363  1  0.54145849  0.22961791  0.31395496  1
  H  H364  1  0.72134021  0.12143361  0.47174665  1
  H  H365  1  0.86093067  0.17497647  0.37199050  1
  O  O366  1  0.64935719  0.18854639  0.40204775  1
  O  O367  1  0.65756385  0.19754680  0.27166924  1
  N  N368  1  0.85401366  0.05401911  0.36115533  1
  H  H369  1  0.87098837  0.04781246  0.41875766  1
  H  H370  1  0.59224356  0.38000161  0.28266177  1
  H  H371  1  0.76433566  0.20667498  0.36485075  1
  O  O372  1  0.98768491  0.12735804  0.36911491  1
  H  H373  1  0.66906955  0.43690654  0.30906887  1
  H  H374  1  0.71433160  0.46501808  0.38585201  1
  C  C375  1  0.74421339  0.37092747  0.29905874  1
  C  C376  1  0.71235972  0.45425973  0.31899820  1
  N  N377  1  0.58752536  0.31881446  0.26180528  1
  H  H378  1  0.82415780  0.00839113  0.36060575  1
  Cu  Cu379  1  0.90792138  0.03590361  0.26907364  1
  H  H380  1  0.74915815  0.09986730  0.32408693  1
  C  C381  1  0.76980537  0.00767079  0.47412632  1
  C  C382  1  0.54443596  0.31880891  0.69782671  1
  O  O383  1  0.84448323  0.34127391  0.66425256  1
  O  O384  1  0.52420843  0.14915139  0.71717950  1
  H  H385  1  0.55509344  0.30662970  0.63101769  1
  C  C386  1  0.54674331  0.41329443  0.71404005  1
  O  O387  1  0.55789106  0.46550528  0.58194808  1
  C  C388  1  0.82798706  0.28339819  0.64458448  1
  C  C389  1  0.53075345  0.46551689  0.64496327  1
  O  O390  1  0.67919070  0.20386714  0.69129622  1
  O  O391  1  0.99247495  0.48453736  0.60137475  1
  H  H392  1  0.99588182  0.39106077  0.71664219  1
  H  H393  1  0.98148646  0.28429561  0.58234438  1
  C  C394  1  0.65362065  0.16750015  0.65404110  1
  H  H395  1  0.99843557  0.07292924  0.69525782  1
  O  O396  1  0.82112464  0.00486976  0.71267054  1
  H  H397  1  0.58176627  0.28679426  0.72649942  1
  H  H398  1  0.71549824  0.02747045  0.73442804  1
  H  H399  1  0.58985520  0.42903521  0.73314094  1
  H  H400  1  0.78349535  0.14892371  0.50232133  1
  H  H401  1  0.64596709  0.28892309  0.93879933  1
  H  H402  1  0.56265435  0.41833206  0.97839260  1
  H  H403  1  0.75816363  0.43268246  0.98539058  1
  C  C404  1  0.89847562  0.02840545  0.86155919  1
  H  H405  1  0.94408959  0.32217009  0.93028466  1
  H  H406  1  0.74493103  0.36677214  0.91261066  1
  H  H407  1  0.52321227  0.43210724  0.76760544  1
  H  H408  1  0.77790521  0.35136899  0.77641084  1
  O  O409  1  0.89382824  0.20050759  0.84031045  1
  H  H410  1  0.95719851  0.08457415  0.94878732  1
  C  C411  1  0.67260797  0.42274651  0.95499077  1
  H  H412  1  0.99919731  0.00807954  0.81418835  1
  C  C413  1  0.94779204  0.08575604  0.88248839  1
  O  O414  1  0.53504935  0.11277774  0.92088289  1
  C  C415  1  0.93893934  0.16934042  0.84818013  1
  Cu  Cu416  1  0.85368259  0.23646574  0.93393686  1
  C  C417  1  0.73553284  0.05553990  0.85710705  1
  C  C418  1  0.63024594  0.35262099  0.92848939  1
  H  H419  1  0.88835056  0.42638776  0.96101410  1
  H  H420  1  0.76265746  0.10850053  0.83713141  1
  N  N421  1  0.72789138  0.39207551  0.96584036  1
  H  H422  1  0.61844545  0.35620007  0.86504223  1
  H  H423  1  0.65429929  0.11131494  0.83676231  1
  H  H424  1  0.87412287  0.06440052  0.81614653  1
  H  H425  1  0.93011256  0.49924365  0.80160300  1
  C  C426  1  0.67648408  0.14995479  0.95087935  1
  O  O427  1  0.75662365  0.32627443  0.81584865  1
  C  C428  1  0.68058732  0.08799021  0.88665406  1
  H  H429  1  0.72995596  0.29963251  0.78499798  1
  H  H430  1  0.75570151  0.02396683  0.90848062  1
  O  O431  1  0.71602413  0.19345421  0.96132100  1
  H  H432  1  0.55193329  0.30655148  0.95382759  1
  O  O433  1  0.98240064  0.20787505  0.82560925  1
  C  C434  1  0.84593195  0.06365155  0.98909870  1
  N  N435  1  0.92011225  0.30957043  0.97588342  1
  N  N436  1  0.64483092  0.01683293  0.90024358  1
  Cu  Cu437  1  0.54210029  0.03784065  0.75398994  1
  O  O438  1  0.86801051  0.13394696  0.99015101  1
  O  O439  1  0.63172638  0.15370921  0.99258063  1
  Cu  Cu440  1  0.59059407  0.05756113  0.99267039  1
  C  C441  1  0.58065355  0.35509635  0.98218351  1
  C  C442  1  0.63697139  0.66682774  0.09905007  1
  C  C443  1  0.62930140  0.74542300  0.12004035  1
  H  H444  1  0.66916648  0.62098596  0.11460094  1
  O  O445  1  0.88008992  0.69763022  0.11475940  1
  C  C446  1  0.50497986  0.88069048  0.05614750  1
  H  H447  1  0.97209660  0.80040891  0.09240517  1
  H  H448  1  0.72571789  0.53339202  0.21137113  1
  O  O449  1  0.94287289  0.51330994  0.21741558  1
  N  N450  1  0.81219354  0.58480111  0.21873385  1
  Cu  Cu451  1  0.98932268  0.60235167  0.19088554  1
  C  C452  1  0.94402707  0.80242703  0.14522091  1
  O  O453  1  0.63988240  0.99707334  0.06244294  1
  H  H454  1  0.56704392  0.62751460  0.04891363  1
  H  H455  1  0.97220733  0.81771146  0.19472880  1
  H  H456  1  0.68248513  0.85429519  0.13927733  1
  H  H457  1  0.98722496  0.97978630  0.19174722  1
  C  C458  1  0.92043293  0.71963417  0.15792694  1
  N  N459  1  0.60715612  0.62495326  0.03585960  1
  H  H460  1  0.59159571  0.77388121  0.09866205  1
  H  H461  1  0.87672317  0.88659753  0.18128306  1
  H  H462  1  0.87832048  0.85752040  0.08336216  1
  Cu  Cu463  1  0.81045679  0.68935527  0.14411464  1
  C  C464  1  0.66783903  0.79661996  0.16782878  1
  C  C465  1  0.97774934  0.94170746  0.03608830  1
  C  C466  1  0.93307529  0.96197242  0.10411833  1
  C  C467  1  0.90564902  0.87806377  0.13123899  1
  H  H468  1  0.85503661  0.58341826  0.22409509  1
  O  O469  1  0.73746268  0.69398659  0.16354352  1
  O  O470  1  0.93630420  0.67758051  0.21593831  1
  H  H471  1  0.61749315  0.56452993  0.03911913  1
  C  C472  1  0.71610677  0.75463104  0.20171651  1
  O  O473  1  0.52331117  0.82542639  0.09201955  1
  H  H474  1  0.55698359  0.95594634  0.15026397  1
  H  H475  1  0.80586258  0.53523673  0.18020232  1
  H  H476  1  0.97912809  0.68818292  0.01252787  1
  H  H477  1  0.64648990  0.82197840  0.22181488  1
  H  H478  1  0.64188652  0.94349079  0.24062090  1
  C  C479  1  0.66056831  0.74465653  0.42713423  1
  H  H480  1  0.53058991  0.78417905  0.40888569  1
  C  C481  1  0.86613576  0.81266469  0.48056226  1
  H  H482  1  0.72617350  0.83616084  0.45936154  1
  H  H483  1  0.69661292  0.58550800  0.29294113  1
  H  H484  1  0.94914520  0.81669340  0.42851453  1
  H  H485  1  0.80810544  0.50761699  0.30559538  1
  O  O486  1  0.82469127  0.68256621  0.36061109  1
  H  H487  1  0.67015516  0.71899877  0.36522286  1
  H  H488  1  0.92857759  0.90890361  0.47246159  1
  C  C489  1  0.62559993  0.82472349  0.42210011  1
  Cu  Cu490  1  0.81722353  0.76869793  0.28304873  1
  C  C491  1  0.91320581  0.85596024  0.43338064  1
  C  C492  1  0.79152682  0.62345059  0.36575532  1
  C  C493  1  0.89693826  0.88236328  0.35374110  1
  H  H494  1  0.74240115  0.76186051  0.39727032  1
  O  O495  1  0.58937075  0.66237875  0.48043142  1
  H  H496  1  0.64796858  0.87417223  0.38749103  1
  O  O497  1  0.92851161  0.92604515  0.31264741  1
  O  O498  1  0.76261750  0.61038703  0.42761107  1
  C  C499  1  0.63870950  0.68037318  0.47843049  1
  O  O500  1  0.84916371  0.86381760  0.32874811  1
  N  N501  1  0.71659643  0.77387335  0.44156472  1
  H  H502  1  0.82494805  0.84766648  0.47032881  1
  O  O503  1  0.73956575  0.95415911  0.44642450  1
  H  H504  1  0.86024689  0.74559126  0.46128697  1
  O  O505  1  0.60114009  0.56960915  0.26859407  1
  C  C506  1  0.78655632  0.56813956  0.29722008  1
  C  C507  1  0.57155946  0.80221429  0.37992552  1
  C  C508  1  0.57703177  0.54203828  0.31418655  1
  H  H509  1  0.61662826  0.85084373  0.48555783  1
  O  O510  1  0.55950909  0.78999519  0.31115537  1
  C  C511  1  0.72796488  0.53839583  0.27872611  1
  H  H512  1  0.55047913  0.99468108  0.25391632  1
  O  O513  1  0.73791396  0.78958722  0.25968067  1
  N  N514  1  0.99685624  0.62702560  0.68626472  1
  C  C515  1  0.50727478  0.95182841  0.61101206  1
  C  C516  1  0.65222674  0.77910898  0.70558340  1
  C  C517  1  0.56657070  0.94603538  0.62470835  1
  H  H518  1  0.52256678  0.82997386  0.70074906  1
  H  H519  1  0.95873694  0.63343184  0.71533083  1
  O  O520  1  0.97810689  0.93342461  0.61975690  1
  O  O521  1  0.50503727  0.67362947  0.70046179  1
  Cu  Cu522  1  0.85253517  0.80285538  0.73164797  1
  Cu  Cu523  1  0.96166977  0.58795305  0.57832843  1
  C  C524  1  0.97048903  0.92588665  0.68830511  1
  O  O525  1  0.79309158  0.72318500  0.70362877  1
  H  H526  1  0.80593785  0.83945791  0.60233629  1
  Cu  Cu527  1  0.56862181  0.56504228  0.52682051  1
  H  H528  1  0.91503962  0.86326201  0.58459700  1
  N  N529  1  0.84616917  0.85757075  0.61771117  1
  O  O530  1  0.89698505  0.72797323  0.67697136  1
  C  C531  1  0.88511537  0.81130928  0.56841857  1
  O  O532  1  0.73647434  0.74889581  0.60378070  1
  H  H533  1  0.84153165  0.91910564  0.60534651  1
  C  C534  1  0.90275742  0.73370206  0.60288018  1
  O  O535  1  0.92119116  0.67779078  0.55331194  1
  C  C536  1  0.74603376  0.74253695  0.67805113  1
  H  H537  1  0.65050397  0.74954725  0.64550648  1
  C  C538  1  0.71066331  0.77631028  0.73819888  1
  H  H539  1  0.64454285  0.84930602  0.69333054  1
  O  O540  1  0.59211392  0.91439903  0.57167638  1
  O  O541  1  0.80285829  0.99285771  0.52603000  1
  O  O542  1  0.58643981  0.99394426  0.68104110  1
  H  H543  1  0.56589073  0.73878913  0.74248702  1
  O  O544  1  0.67039157  0.64437749  0.52795197  1
  Cu  Cu545  1  0.74591293  0.67802033  0.51577336  1
  C  C546  1  0.60769040  0.79597857  0.84643116  1
  O  O547  1  0.80330783  0.88521941  0.77589466  1
  O  O548  1  0.59576257  0.75577124  0.91195230  1
  O  O549  1  0.91026467  0.60240696  0.89216076  1
  H  H550  1  0.88407754  0.94819454  0.96912961  1
  N  N551  1  0.60884675  0.65492157  0.78531463  1
  H  H552  1  0.62897307  0.98999450  0.84964587  1
  O  O553  1  0.96624316  0.51579757  0.80811039  1
  O  O554  1  0.61508502  0.52420256  0.89353566  1
  C  C555  1  0.95518712  0.57690441  0.88397217  1
  H  H556  1  0.66579908  0.96859328  0.92652476  1
  O  O557  1  0.70268948  0.54190261  0.87026113  1
  H  H558  1  0.82697676  0.96646573  0.91066885  1
  O  O559  1  0.61604214  0.87020235  0.84255614  1
  O  O560  1  0.97403198  0.88913571  0.98751583  1
  Cu  Cu561  1  0.59997982  0.63865909  0.91015749  1
  H  H562  1  0.70609013  0.93809705  0.80034662  1
  H  H563  1  0.64366003  0.62693312  0.77056876  1
  C  C564  1  0.73343686  0.99093716  0.78535482  1
  H  H565  1  0.72423814  0.84029680  0.75922579  1
  O  O566  1  0.52303990  0.60902506  0.91445350  1
  C  C567  1  0.66708602  0.50212634  0.89941866  1
  C  C568  1  0.79046539  0.96434153  0.75448461  1
  C  C569  1  0.60974120  0.74369431  0.76710242  1
  H  H570  1  0.58096753  0.62130684  0.75227779  1
  C  C571  1  0.86400930  0.99662269  0.93287330  1
  H  H572  1  0.50586342  0.77428286  0.89039618  1
  H  H573  1  0.71772693  0.73785336  0.79322304  1
  H  H574  1  0.91769632  0.97294226  0.83068975  1
  O  O575  1  0.96454700  0.91726440  0.75851958  1
