# generated using pymatgen
data_Cu2H24(C11O4)3
_symmetry_space_group_name_H-M   'P 1'
_cell_length_a   25.50539168
_cell_length_b   16.57024438
_cell_length_c   15.86275270
_cell_angle_alpha   90.00000000
_cell_angle_beta   90.00000000
_cell_angle_gamma   90.00000000
_symmetry_Int_Tables_number   1
_chemical_formula_structural   Cu2H24(C11O4)3
_chemical_formula_sum   'Cu16 H192 C264 O96'
_cell_volume   6704.08426522
_cell_formula_units_Z   8
loop_
 _symmetry_equiv_pos_site_id
 _symmetry_equiv_pos_as_xyz
  1  'x, y, z'
loop_
 _atom_site_type_symbol
 _atom_site_label
 _atom_site_symmetry_multiplicity
 _atom_site_fract_x
 _atom_site_fract_y
 _atom_site_fract_z
 _atom_site_occupancy
  C  C0  1  0.15805869  0.33476916  0.12608732  1
  C  C1  1  0.12403397  0.04277507  0.15539714  1
  C  C2  1  0.11681864  0.38638144  0.08970269  1
  O  O3  1  0.20005050  0.36801274  0.14418833  1
  O  O4  1  0.11155376  0.11067791  0.11904307  1
  O  O5  1  0.14897603  0.26076256  0.13854622  1
  C  C6  1  0.07016330  0.34461952  0.06898251  1
  O  O7  1  0.14927575  0.03607149  0.21906489  1
  H  H8  1  0.06424910  0.27852970  0.07678071  1
  C  C9  1  0.03172357  0.39282210  0.03544189  1
  C  C10  1  0.11968232  0.47109660  0.08305672  1
  Cu  Cu11  1  0.16178628  0.16955814  0.06955165  1
  C  C12  1  0.03108424  0.47604587  0.01681287  1
  H  H13  1  0.06457464  0.00885753  0.00912230  1
  C  C14  1  0.45452064  0.01802891  0.15202957  1
  Cu  Cu15  1  0.24401621  0.37727607  0.23889766  1
  H  H16  1  0.43639808  0.07612643  0.15201743  1
  H  H17  1  0.05468404  0.48138638  0.22948796  1
  O  O18  1  0.21532681  0.21603087  0.00272273  1
  O  O19  1  0.14203156  0.43283153  0.36332561  1
  H  H20  1  0.05117332  0.40558473  0.36685200  1
  C  C21  1  0.05513636  0.34085721  0.35199257  1
  C  C22  1  0.10383587  0.30934471  0.33163865  1
  C  C23  1  0.15014376  0.36658625  0.33721769  1
  H  H24  1  0.04955545  0.05618478  0.45613452  1
  O  O25  1  0.19671576  0.34544182  0.31624785  1
  C  C26  1  0.01055563  0.29168056  0.34666601  1
  C  C27  1  0.00804239  0.21083158  0.31555732  1
  C  C28  1  0.01594259  0.01622492  0.44215437  1
  C  C29  1  0.05964955  0.18593059  0.29440226  1
  C  C30  1  0.10565845  0.23066619  0.30006752  1
  C  C31  1  0.38774754  0.48458509  0.34253236  1
  H  H32  1  0.14456185  0.20961413  0.28091439  1
  O  O33  1  0.35423585  0.28531884  0.27711230  1
  H  H34  1  0.43288099  0.00489598  0.48275813  1
  H  H35  1  0.45357444  0.32627351  0.25086369  1
  H  H36  1  0.24930647  0.33772817  0.42896385  1
  C  C37  1  0.45751703  0.12619053  0.47904167  1
  C  C38  1  0.39563036  0.40833911  0.30808609  1
  C  C39  1  0.48620202  0.44119060  0.29482194  1
  H  H40  1  0.36743255  0.25908629  0.44991392  1
  C  C41  1  0.44586577  0.38682853  0.28160157  1
  O  O42  1  0.41172196  0.16098207  0.47077678  1
  O  O43  1  0.30201758  0.38607039  0.30474093  1
  C  C44  1  0.34900656  0.35256554  0.29645533  1
  C  C45  1  0.46871551  0.04192599  0.48825484  1
  C  C46  1  0.40894585  0.25935958  0.47243734  1
  H  H47  1  0.43045752  0.29202172  0.42307834  1
  O  O48  1  0.27901070  0.02615477  0.32229159  1
  H  H49  1  0.37193509  0.00093974  0.28778090  1
  C  C50  1  0.24845872  0.32658755  0.49893316  1
  H  H51  1  0.16921284  0.28500876  0.49808731  1
  H  H52  1  0.40985531  0.41159709  0.48424048  1
  H  H53  1  0.05856855  0.12451835  0.27035878  1
  C  C54  1  0.15423709  0.25840636  0.67054736  1
  O  O55  1  0.11584539  0.24430318  0.63238429  1
  C  C56  1  0.20153320  0.28797233  0.62329198  1
  O  O57  1  0.19103540  0.03524134  0.56087905  1
  C  C58  1  0.05816138  0.47718322  0.72308551  1
  H  H59  1  0.03261585  0.08188182  0.67178642  1
  H  H60  1  0.24414176  0.31070098  0.74548769  1
  C  C61  1  0.20350552  0.29647145  0.53633201  1
  O  O62  1  0.33949116  0.37303419  0.50456054  1
  H  H63  1  0.49395543  0.25845304  0.58957427  1
  H  H64  1  0.18409212  0.49806618  0.50632454  1
  C  C65  1  0.24467143  0.31160951  0.67174195  1
  C  C66  1  0.29272109  0.34504546  0.54414723  1
  H  H67  1  0.35310766  0.23325709  0.61298726  1
  H  H68  1  0.28458499  0.06757861  0.53253126  1
  C  C69  1  0.34957294  0.04195849  0.62565904  1
  C  C70  1  0.01369052  0.02073872  0.66600836  1
  H  H71  1  0.37791101  0.07111353  0.58621296  1
  C  C72  1  0.39546804  0.24232712  0.62349523  1
  H  H73  1  0.32150279  0.37066166  0.67167125  1
  H  H74  1  0.41670177  0.18191815  0.61821009  1
  H  H75  1  0.32307981  0.15334098  0.69515151  1
  H  H76  1  0.47067885  0.35875624  0.63385756  1
  O  O77  1  0.38657304  0.27726108  0.71315583  1
  C  C78  1  0.28933360  0.34411581  0.63286016  1
  C  C79  1  0.41542937  0.29663314  0.55655704  1
  C  C80  1  0.26121122  0.00189334  0.64482010  1
  C  C81  1  0.39011959  0.38030376  0.54216426  1
  H  H82  1  0.39222089  0.41911026  0.59665420  1
  C  C83  1  0.29796014  0.03960083  0.59399188  1
  C  C84  1  0.47163662  0.31642040  0.57699109  1
  C  C85  1  0.04633668  0.29587135  0.87311627  1
  C  C86  1  0.03741585  0.36895741  0.81844428  1
  O  O87  1  0.09259938  0.27632338  0.87805570  1
  C  C88  1  0.05025693  0.05158752  0.85254748  1
  Cu  Cu89  1  0.12921313  0.18321053  0.82888614  1
  O  O90  1  0.09354405  0.07729254  0.82270665  1
  O  O91  1  0.18431993  0.14922150  0.89269929  1
  C  C92  1  0.21915666  0.19407830  0.92809512  1
  O  O93  1  0.01041151  0.25728633  0.91077949  1
  C  C94  1  0.35033497  0.25241246  0.76998770  1
  C  C95  1  0.07419203  0.41100013  0.77079546  1
  H  H96  1  0.11670601  0.39478407  0.77407809  1
  H  H97  1  0.24884639  0.11166148  0.79701614  1
  H  H98  1  0.25073038  0.49936673  0.84589863  1
  H  H99  1  0.41773948  0.01235424  0.84511278  1
  H  H100  1  0.29662224  0.29936159  0.96640066  1
  C  C101  1  0.43145165  0.48497510  0.93438344  1
  C  C102  1  0.26702102  0.20877980  0.88069785  1
  Cu  Cu103  1  0.39902526  0.47802149  0.76583789  1
  O  O104  1  0.43515264  0.44656796  0.86038483  1
  C  C105  1  0.34042823  0.28790739  0.84847713  1
  H  H106  1  0.36137409  0.34457634  0.86961526  1
  O  O107  1  0.01854382  0.09729338  0.89232698  1
  C  C108  1  0.27742382  0.16227402  0.80992320  1
  C  C109  1  0.30206893  0.26641096  0.90636110  1
  O  O110  1  0.15997122  0.24942492  0.75262197  1
  O  O111  1  0.41338086  0.45588007  0.99673100  1
  O  O112  1  0.32715527  0.49903308  0.76012332  1
  C  C113  1  0.31705040  0.18619234  0.75499291  1
  C  C114  1  0.10516580  0.82491649  0.13997289  1
  C  C115  1  0.07445961  0.81107251  0.06590802  1
  H  H116  1  0.11894940  0.77010377  0.17492853  1
  C  C117  1  0.12249958  0.89699551  0.17122032  1
  H  H118  1  0.21001525  0.69820168  0.07746832  1
  C  C119  1  0.19161801  0.66824419  0.13303281  1
  C  C120  1  0.22315448  0.64393637  0.20187633  1
  C  C121  1  0.13929647  0.65084761  0.14225828  1
  H  H122  1  0.11210412  0.66597847  0.08821603  1
  C  C123  1  0.11590162  0.61268903  0.20971504  1
  C  C124  1  0.07609230  0.95862353  0.04744566  1
  C  C125  1  0.10625664  0.96337837  0.12291943  1
  O  O126  1  0.06475115  0.60023604  0.19892809  1
  O  O127  1  0.06279126  0.73759261  0.04064492  1
  C  C128  1  0.06141798  0.88214233  0.02130702  1
  H  H129  1  0.08526158  0.57347005  0.03287218  1
  C  C130  1  0.07935305  0.51184178  0.04488200  1
  H  H131  1  0.00707238  0.61412492  0.03269070  1
  C  C132  1  0.27608079  0.67981900  0.19333846  1
  C  C133  1  0.42006027  0.95474023  0.15642470  1
  H  H134  1  0.41375717  0.73915197  0.03780368  1
  O  O135  1  0.36791125  0.80678692  0.19878975  1
  C  C136  1  0.41773089  0.80071653  0.18311560  1
  O  O137  1  0.44124577  0.73837081  0.18894421  1
  H  H138  1  0.37701411  0.96259124  0.16076842  1
  H  H139  1  0.40492608  0.59816666  0.05791654  1
  C  C140  1  0.44297397  0.87852842  0.15695928  1
  O  O141  1  0.28696009  0.71035625  0.12527038  1
  C  C142  1  0.42672635  0.61941419  0.00165785  1
  C  C143  1  0.49813907  0.87254747  0.14703633  1
  H  H144  1  0.15489312  0.50479239  0.10556636  1
  H  H145  1  0.14812344  0.90519858  0.22719588  1
  C  C146  1  0.08627729  0.91433872  0.43687944  1
  H  H147  1  0.05284105  0.54767495  0.32252614  1
  C  C148  1  0.22413245  0.71283142  0.43363185  1
  C  C149  1  0.17212541  0.69443349  0.44928532  1
  H  H150  1  0.13249535  0.56914009  0.33789924  1
  H  H151  1  0.06059272  0.69793895  0.43133666  1
  H  H152  1  0.23169348  0.59218015  0.32819426  1
  H  H153  1  0.14303573  0.74057776  0.43852056  1
  O  O154  1  0.09931389  0.84568088  0.42781527  1
  C  C155  1  0.03039560  0.93413863  0.43253690  1
  C  C156  1  0.15643440  0.61939565  0.48101642  1
  O  O157  1  0.10559785  0.60204217  0.49473436  1
  C  C158  1  0.20355900  0.60544962  0.27688927  1
  C  C159  1  0.19526883  0.56037179  0.49146118  1
  C  C160  1  0.15121868  0.59149614  0.27706544  1
  O  O161  1  0.31290399  0.67995628  0.25226167  1
  H  H162  1  0.00147700  0.81198598  0.41321271  1
  H  H163  1  0.27689680  0.53571078  0.49511941  1
  H  H164  1  0.34671631  0.50089063  0.36396871  1
  Cu  Cu165  1  0.18750737  0.97849632  0.45496193  1
  O  O166  1  0.11652217  0.97775302  0.45040111  1
  H  H167  1  0.23664238  0.77355894  0.40885320  1
  C  C168  1  0.24705867  0.57940057  0.47911771  1
  C  C169  1  0.48266566  0.51868278  0.33260513  1
  H  H170  1  0.48825631  0.82091250  0.30742430  1
  H  H171  1  0.47515501  0.65019487  0.34820648  1
  C  C172  1  0.26305079  0.65770059  0.45486951  1
  O  O173  1  0.46999297  0.79561424  0.42284943  1
  Cu  Cu174  1  0.35038418  0.76562239  0.30405601  1
  C  C175  1  0.34811425  0.90516222  0.48039321  1
  O  O176  1  0.25540036  0.97529262  0.44197210  1
  C  C177  1  0.37748578  0.95808682  0.33909777  1
  O  O178  1  0.35027862  0.61833806  0.47776541  1
  O  O179  1  0.33615612  0.73278165  0.41018236  1
  C  C180  1  0.42990799  0.53338131  0.35656237  1
  C  C181  1  0.34178576  0.95105494  0.40660712  1
  C  C182  1  0.39301488  0.85929746  0.47319415  1
  C  C183  1  0.42569599  0.91697132  0.34715210  1
  C  C184  1  0.43234259  0.85722979  0.41170019  1
  H  H185  1  0.42126791  0.59123460  0.38708545  1
  H  H186  1  0.45590874  0.92423582  0.29890713  1
  C  C187  1  0.31992430  0.67093832  0.44602190  1
  C  C188  1  0.29089050  0.99008490  0.38494902  1
  C  C189  1  0.06800331  0.67262896  0.49426393  1
  C  C190  1  0.03635092  0.53675968  0.25651670  1
  C  C191  1  0.02515711  0.59438487  0.60358576  1
  H  H192  1  0.05576310  0.62071093  0.65182207  1
  H  H193  1  0.13927884  0.66270247  0.65567311  1
  C  C194  1  0.01726425  0.66284028  0.54167459  1
  C  C195  1  0.21325601  0.60063119  0.66841346  1
  C  C196  1  0.16425670  0.62505358  0.69530188  1
  O  O197  1  0.03919205  0.81052337  0.60118393  1
  H  H198  1  0.22766550  0.61488609  0.60590020  1
  C  C199  1  0.03912405  0.95323689  0.64078183  1
  H  H200  1  0.08144619  0.96107713  0.62633669  1
  H  H201  1  0.04432359  0.53829092  0.57303421  1
  H  H202  1  0.31794722  0.90780075  0.53120955  1
  H  H203  1  0.08762434  0.71969553  0.53382916  1
  O  O204  1  0.41528723  0.62414992  0.68630829  1
  C  C205  1  0.24840299  0.56114472  0.72242391  1
  O  O206  1  0.45862168  0.51143900  0.70191725  1
  O  O207  1  0.17115428  0.97125944  0.67958038  1
  C  C208  1  0.49707013  0.70833624  0.62148821  1
  H  H209  1  0.40127440  0.82057148  0.52908895  1
  Cu  Cu210  1  0.37672258  0.62012411  0.58633880  1
  C  C211  1  0.30338484  0.53730033  0.70503043  1
  C  C212  1  0.45927054  0.58630568  0.68553149  1
  O  O213  1  0.32225137  0.54781052  0.63129830  1
  H  H214  1  0.46316626  0.74532342  0.64124124  1
  C  C215  1  0.36881308  0.99860801  0.69669141  1
  C  C216  1  0.01482206  0.87701062  0.62447758  1
  C  C217  1  0.27442168  0.96936141  0.72409369  1
  O  O218  1  0.42156391  0.99103789  0.71663252  1
  C  C219  1  0.00496519  0.50035933  0.71427802  1
  C  C220  1  0.20276649  0.99859248  0.63033186  1
  H  H221  1  0.08740806  0.50928796  0.68392589  1
  C  C222  1  0.32726635  0.96631062  0.74341174  1
  C  C223  1  0.07446985  0.61903923  0.87875245  1
  O  O224  1  0.09610238  0.64528478  0.79720646  1
  H  H225  1  0.07082116  0.55240858  0.87423642  1
  C  C226  1  0.17749542  0.56182740  0.82148780  1
  C  C227  1  0.02326900  0.65722685  0.90616245  1
  C  C228  1  0.03606653  0.73417632  0.94732197  1
  H  H229  1  0.10232286  0.63008990  0.93033737  1
  C  C230  1  0.03446462  0.83196871  0.80177474  1
  C  C231  1  0.05944157  0.90422352  0.81160343  1
  H  H232  1  0.06645755  0.77566466  0.91711132  1
  H  H233  1  0.03970941  0.87508989  0.96347685  1
  C  C234  1  0.03202075  0.96839941  0.84932192  1
  C  C235  1  0.14428678  0.61523938  0.77659316  1
  H  H236  1  0.09818760  0.90933382  0.78720887  1
  C  C237  1  0.22753866  0.53640697  0.80005371  1
  H  H238  1  0.16593278  0.53847721  0.88568468  1
  O  O239  1  0.46468418  0.81927628  0.91392465  1
  H  H240  1  0.05830346  0.78217113  0.76926546  1
  H  H241  1  0.00299729  0.66119707  0.76468042  1
  C  C242  1  0.48001620  0.60212463  0.87168736  1
  H  H243  1  0.34006167  0.93022072  0.80144173  1
  C  C244  1  0.49282964  0.85248993  0.84456642  1
  C  C245  1  0.43253565  0.96365562  0.80304361  1
  C  C246  1  0.43391141  0.70185333  0.98862618  1
  C  C247  1  0.48899066  0.94430794  0.82537837  1
  C  C248  1  0.48713687  0.68285295  0.86747608  1
  C  C249  1  0.44727026  0.57436855  0.93687848  1
  C  C250  1  0.45983542  0.73920906  0.92403795  1
  H  H251  1  0.46710006  0.98033833  0.94863145  1
  H  H252  1  0.49730720  0.55890873  0.82751594  1
  H  H253  1  0.48141405  0.82285076  0.78312933  1
  H  H254  1  0.40607955  0.91089673  0.81649849  1
  H  H255  1  0.24560054  0.93845777  0.76357280  1
  C  C256  1  0.55546553  0.37841161  0.13973630  1
  H  H257  1  0.53046119  0.38209910  0.08106638  1
  C  C258  1  0.64767410  0.20665572  0.17011255  1
  O  O259  1  0.54052144  0.08043169  0.15338321  1
  O  O260  1  0.69867010  0.20521858  0.13080287  1
  H  H261  1  0.61820209  0.21342248  0.11938490  1
  C  C262  1  0.70933122  0.26693091  0.07993653  1
  C  C263  1  0.59244163  0.43751927  0.16161557  1
  H  H264  1  0.63159648  0.33077517  0.08441214  1
  C  C265  1  0.60039737  0.07450000  0.16829503  1
  C  C266  1  0.67118144  0.32671322  0.05669240  1
  H  H267  1  0.64986983  0.26032086  0.21191563  1
  H  H268  1  0.52801358  0.26292382  0.17849119  1
  H  H269  1  0.70130450  0.04038891  0.13697623  1
  C  C270  1  0.55504947  0.31347748  0.19486146  1
  H  H271  1  0.61984486  0.05999607  0.11201220  1
  H  H272  1  0.71037757  0.09864271  0.22890310  1
  C  C273  1  0.62258298  0.43972245  0.23621821  1
  C  C274  1  0.82231028  0.02672476  0.02002019  1
  C  C275  1  0.62656051  0.13393548  0.22280190  1
  C  C276  1  0.75207071  0.28186349  0.02788185  1
  H  H277  1  0.91643527  0.06182166  0.23944786  1
  H  H278  1  0.92627744  0.15038398  0.08455119  1
  C  C279  1  0.95508374  0.48441996  0.19324369  1
  C  C280  1  0.92433770  0.21448730  0.07414642  1
  O  O281  1  0.85354161  0.09934417  0.14440266  1
  H  H282  1  0.75421935  0.45211500  0.14115170  1
  C  C283  1  0.77506997  0.35622072  0.23141275  1
  C  C284  1  0.93858768  0.34911668  0.14299495  1
  C  C285  1  0.84800778  0.03395783  0.09728436  1
  C  C286  1  0.91253494  0.38401134  0.07266465  1
  C  C287  1  0.50967262  0.01466255  0.14997329  1
  O  O288  1  0.95936612  0.39078690  0.20530536  1
  C  C289  1  0.75523376  0.43210850  0.20789532  1
  H  H290  1  0.83591934  0.22316186  0.21603719  1
  H  H291  1  0.96225074  0.22992162  0.18889680  1
  H  H292  1  0.78581388  0.23888573  0.03080489  1
  H  H293  1  0.90661617  0.45172436  0.06464909  1
  H  H294  1  0.79049972  0.32500834  0.17389570  1
  C  C295  1  0.94096824  0.26294330  0.13764247  1
  H  H296  1  0.97457863  0.49113891  0.12928290  1
  C  C297  1  0.87593103  0.08332614  0.23795608  1
  H  H298  1  0.91143927  0.48898256  0.19591362  1
  H  H299  1  0.59542887  0.01983104  0.20342587  1
  H  H300  1  0.85067762  0.02996042  0.24973771  1
  H  H301  1  0.64034304  0.43476830  0.00352498  1
  C  C302  1  0.67347907  0.39055468  0.00136652  1
  H  H303  1  0.99384803  0.36099062  0.01800999  1
  C  C304  1  0.89576393  0.33924426  0.00433492  1
  C  C305  1  0.90122635  0.25477760  0.00454384  1
  H  H306  1  0.63718601  0.37382619  0.34968101  1
  O  O307  1  0.58535058  0.23985334  0.32080304  1
  H  H308  1  0.59620938  0.11157952  0.34331309  1
  C  C309  1  0.61585685  0.37391036  0.28808813  1
  H  H310  1  0.57351868  0.42544984  0.40449233  1
  C  C311  1  0.58885298  0.15661929  0.29350188  1
  H  H312  1  0.67651662  0.12424828  0.32772025  1
  C  C313  1  0.58523231  0.30659513  0.26771809  1
  H  H314  1  0.52641775  0.42360209  0.28032437  1
  H  H315  1  0.54443027  0.15035041  0.27684985  1
  C  C316  1  0.58394905  0.42428675  0.47221462  1
  C  C317  1  0.56289082  0.04812770  0.48251952  1
  O  O318  1  0.67956360  0.00135697  0.29344409  1
  C  C319  1  0.82445700  0.19926825  0.27998673  1
  H  H320  1  0.97355742  0.32098587  0.36600238  1
  C  C321  1  0.67195526  0.09700073  0.26579043  1
  C  C322  1  0.78416333  0.32546637  0.31321128  1
  C  C323  1  0.51536576  0.00269805  0.49086070  1
  C  C324  1  0.55630150  0.13236363  0.47734134  1
  H  H325  1  0.77823356  0.36993453  0.44223011  1
  C  C326  1  0.94071033  0.43705896  0.47737778  1
  O  O327  1  0.87536636  0.00628968  0.39446300  1
  H  H328  1  0.91312087  0.25259116  0.27506377  1
  H  H329  1  0.95457167  0.10169083  0.44348135  1
  O  O330  1  0.65424191  0.03773194  0.46243802  1
  C  C331  1  0.74495891  0.45565672  0.35800084  1
  C  C332  1  0.50750470  0.16473062  0.47896449  1
  O  O333  1  0.80897707  0.25493053  0.34181616  1
  C  C334  1  0.86003703  0.09975447  0.38621748  1
  H  H335  1  0.91070261  0.22906593  0.38190475  1
  H  H336  1  0.81634054  0.10495440  0.39829696  1
  C  C337  1  0.96478481  0.03916107  0.43564646  1
  C  C338  1  0.87076111  0.14254817  0.30655056  1
  O  O339  1  0.96736296  0.16245816  0.30504871  1
  C  C340  1  0.76821809  0.38322448  0.37445549  1
  C  C341  1  0.89243178  0.47601162  0.48780883  1
  C  C342  1  0.91572129  0.20068481  0.31967767  1
  O  O343  1  0.97518537  0.45508159  0.41755882  1
  H  H344  1  0.88012373  0.13151014  0.44177227  1
  H  H345  1  0.65989076  0.47784439  0.45337328  1
  H  H346  1  0.59073839  0.16969548  0.46973287  1
  H  H347  1  0.50057950  0.22902737  0.47299449  1
  C  C348  1  0.73995077  0.48180007  0.27461621  1
  H  H349  1  0.92632856  0.45976361  0.32985113  1
  H  H350  1  0.78731136  0.16760269  0.26781086  1
  C  C351  1  0.61166613  0.00336692  0.47745736  1
  H  H352  1  0.73204027  0.48851900  0.41674311  1
  C  C353  1  0.63121263  0.45452687  0.49942580  1
  H  H354  1  0.64921229  0.48772130  0.25034393  1
  H  H355  1  0.68253824  0.07077202  0.61593820  1
  C  C356  1  0.61263417  0.42105732  0.64488710  1
  C  C357  1  0.56738144  0.38833672  0.61566406  1
  C  C358  1  0.54857441  0.39043309  0.53084660  1
  H  H359  1  0.62296869  0.41754606  0.71324530  1
  H  H360  1  0.54327886  0.35482677  0.65893660  1
  C  C361  1  0.67220424  0.01018532  0.64074049  1
  C  C362  1  0.64638934  0.45676297  0.58477614  1
  C  C363  1  0.84064508  0.37265453  0.68112517  1
  O  O364  1  0.79943673  0.41516842  0.69053698  1
  C  C365  1  0.95501263  0.37694093  0.53910198  1
  C  C366  1  0.95867314  0.01910640  0.67912650  1
  O  O367  1  0.85010907  0.31071781  0.72397155  1
  O  O368  1  0.50412123  0.35247450  0.51033722  1
  H  H369  1  0.81076732  0.04607245  0.58845415  1
  O  O370  1  0.88296199  0.08525766  0.72585358  1
  O  O371  1  0.77391664  0.04997235  0.60236531  1
  H  H372  1  0.93362780  0.31888799  0.65761321  1
  C  C373  1  0.85627706  0.45097032  0.54694268  1
  C  C374  1  0.93048198  0.09024524  0.71069519  1
  C  C375  1  0.92186226  0.35912756  0.60570470  1
  H  H376  1  0.59792161  0.03862526  0.67755083  1
  C  C377  1  0.87172052  0.39405830  0.60662686  1
  H  H378  1  0.81463312  0.47576203  0.55409419  1
  O  O379  1  0.95704647  0.15164849  0.73371691  1
  C  C380  1  0.69444183  0.49993967  0.61018780  1
  H  H381  1  0.99627868  0.35172440  0.54117422  1
  C  C382  1  0.72129407  0.39671110  0.95115350  1
  C  C383  1  0.68968486  0.11851655  0.87983054  1
  C  C384  1  0.65154412  0.17596768  0.91002328  1
  C  C385  1  0.60115294  0.15591509  0.92011491  1
  H  H386  1  0.66552042  0.24203396  0.92238656  1
  C  C387  1  0.57805023  0.07903685  0.89980188  1
  C  C388  1  0.72220761  0.45973560  0.88822067  1
  O  O389  1  0.52700501  0.06564832  0.91281304  1
  C  C390  1  0.66809185  0.04348492  0.85644636  1
  H  H391  1  0.57484341  0.20461608  0.94390627  1
  C  C392  1  0.74322670  0.13708513  0.86151589  1
  C  C393  1  0.61579675  0.02488204  0.86818283  1
  O  O394  1  0.86806448  0.26197895  0.87049141  1
  H  H395  1  0.96370678  0.00883592  0.91894265  1
  C  C396  1  0.97076934  0.45585530  0.76704121  1
  H  H397  1  0.92819631  0.46944989  0.76327890  1
  H  H398  1  0.55417263  0.01536837  0.77211825  1
  C  C399  1  0.76112212  0.34558986  0.97027599  1
  Cu  Cu400  1  0.84506556  0.10311339  0.82553699  1
  Cu  Cu401  1  0.80534289  0.25786193  0.79900234  1
  O  O402  1  0.88658655  0.13904216  0.91185669  1
  H  H403  1  0.87842235  0.37440226  0.94975924  1
  Cu  Cu404  1  0.97891163  0.17628619  0.84629446  1
  O  O405  1  0.76064671  0.20773424  0.86948345  1
  O  O406  1  0.77249725  0.07859032  0.83526848  1
  O  O407  1  0.76665189  0.47408740  0.85676962  1
  C  C408  1  0.88718080  0.21444811  0.92639355  1
  C  C409  1  0.98397930  0.39066025  0.81619623  1
  H  H410  1  0.95314257  0.35529084  0.84729722  1
  H  H411  1  0.79767151  0.35259131  0.93337564  1
  H  H412  1  0.80005295  0.08164589  0.99662610  1
  C  C413  1  0.58710967  0.76403925  0.12466485  1
  H  H414  1  0.54823355  0.64606609  0.11907180  1
  C  C415  1  0.56751387  0.69660327  0.08188773  1
  C  C416  1  0.60808463  0.82348864  0.06937769  1
  H  H417  1  0.62005181  0.88296078  0.09736629  1
  H  H418  1  0.57375545  0.92457986  0.14426707  1
  Cu  Cu419  1  0.67848030  0.63538233  0.09547446  1
  O  O420  1  0.63039125  0.56684568  0.14350377  1
  C  C421  1  0.71306375  0.81091760  0.18810183  1
  C  C422  1  0.72109891  0.84162252  0.10446222  1
  C  C423  1  0.53107808  0.93747682  0.14603971  1
  O  O424  1  0.72962356  0.58991750  0.17086580  1
  C  C425  1  0.72097529  0.92335246  0.08701361  1
  O  O426  1  0.58207526  0.77774718  0.20702450  1
  H  H427  1  0.52368248  0.68596844  0.21508346  1
  H  H428  1  0.71628358  0.74613738  0.20525132  1
  H  H429  1  0.89441923  0.95518841  0.17552006  1
  C  C430  1  0.70515063  0.97478404  0.15018145  1
  C  C431  1  0.94898793  0.61740421  0.24041523  1
  O  O432  1  0.57764602  0.52213125  0.04203810  1
  C  C433  1  0.86917233  0.95648024  0.11925417  1
  C  C434  1  0.60018529  0.50871326  0.10535409  1
  H  H435  1  0.72982829  0.94565661  0.02132392  1
  C  C436  1  0.69270925  0.94962490  0.23294073  1
  H  H437  1  0.88040773  0.82679280  0.10505827  1
  O  O438  1  0.73036412  0.70950084  0.05113376  1
  C  C439  1  0.72956930  0.78440045  0.03620836  1
  H  H440  1  0.95465106  0.64074028  0.17395397  1
  C  C441  1  0.86435010  0.88498362  0.07738303  1
  C  C442  1  0.69818721  0.86529864  0.24542031  1
  H  H443  1  0.58871036  0.65610468  0.24825758  1
  C  C444  1  0.72106641  0.56375405  0.24765299  1
  H  H445  1  0.51328354  0.80877044  0.15085036  1
  C  C446  1  0.59494942  0.73448747  0.38579333  1
  H  H447  1  0.62785564  0.75693701  0.34532283  1
  C  C448  1  0.54688538  0.71904345  0.34248700  1
  H  H449  1  0.53558504  0.84471796  0.39039770  1
  O  O450  1  0.70217488  0.60766613  0.29891914  1
  H  H451  1  0.69204039  0.84371291  0.31024618  1
  O  O452  1  0.61234239  0.72551398  0.45613464  1
  O  O453  1  0.93452701  0.68474328  0.46174643  1
  Cu  Cu454  1  0.71294014  0.97328806  0.43169857  1
  C  C455  1  0.51561731  0.64980503  0.37805715  1
  O  O456  1  0.52549807  0.56751831  0.34326558  1
  C  C457  1  0.51220459  0.79584827  0.36431277  1
  H  H458  1  0.99633025  0.61926790  0.41190780  1
  C  C459  1  0.94306873  0.90461213  0.40929820  1
  H  H460  1  0.90528150  0.77477047  0.25654598  1
  Cu  Cu461  1  0.66773581  0.85930998  0.48612137  1
  H  H462  1  0.51029343  0.65340241  0.44807425  1
  O  O463  1  0.72322755  0.80092565  0.45206079  1
  C  C464  1  0.99311302  0.87492026  0.41748039  1
  H  H465  1  0.85031938  0.78247804  0.48370720  1
  C  C466  1  0.97845919  0.62848049  0.47704447  1
  H  H467  1  0.81387670  0.57408114  0.34785979  1
  O  O468  1  0.76899750  0.90490764  0.40245789  1
  C  C469  1  0.86306896  0.66673216  0.28999918  1
  H  H470  1  0.94002251  0.55720340  0.38530890  1
  C  C471  1  0.82179162  0.64017729  0.34055473  1
  H  H472  1  0.51766869  0.93691924  0.49383834  1
  C  C473  1  0.84129939  0.80504028  0.33319126  1
  H  H474  1  0.85019148  0.87033308  0.33031190  1
  C  C475  1  0.97926469  0.53528156  0.25988532  1
  C  C476  1  0.95780272  0.50804751  0.34362894  1
  H  H477  1  0.96236675  0.66645723  0.28209185  1
  H  H478  1  0.75777068  0.66685356  0.42204849  1
  H  H479  1  0.88102951  0.52225792  0.44204157  1
  H  H480  1  0.91249371  0.85780616  0.39626278  1
  C  C481  1  0.79846490  0.77280446  0.37515799  1
  C  C482  1  0.78870813  0.68891662  0.38446161  1
  C  C483  1  0.87305697  0.74996096  0.29204325  1
  O  O484  1  0.61058716  0.92718321  0.49373093  1
  C  C485  1  0.76325164  0.82924477  0.41585856  1
  C  C486  1  0.92468673  0.98580607  0.40819070  1
  H  H487  1  0.96423959  0.56701519  0.49688556  1
  O  O488  1  0.89353810  0.60616998  0.25274052  1
  C  C489  1  0.55774212  0.70375441  0.25279422  1
  C  C490  1  0.58306185  0.61256675  0.56571005  1
  C  C491  1  0.69769037  0.86532277  0.65944701  1
  C  C492  1  0.54492238  0.58216758  0.62238604  1
  C  C493  1  0.62650245  0.99077243  0.67857099  1
  C  C494  1  0.64805423  0.85125722  0.68602556  1
  O  O495  1  0.72335784  0.52227999  0.55795118  1
  C  C496  1  0.70965925  0.94723033  0.63993851  1
  C  C497  1  0.53526376  0.73816462  0.56744747  1
  H  H498  1  0.72521265  0.81493509  0.65672092  1
  C  C499  1  0.60916773  0.91146827  0.70008946  1
  H  H500  1  0.50761220  0.98272063  0.69588975  1
  C  C501  1  0.57497110  0.68875646  0.53364284  1
  O  O502  1  0.98732428  0.56036285  0.66388001  1
  C  C503  1  0.85547921  0.73748292  0.53587571  1
  C  C504  1  0.89850309  0.68336275  0.52351007  1
  H  H505  1  0.53131372  0.79983407  0.54519904  1
  H  H506  1  0.98119186  0.71671898  0.64234765  1
  O  O507  1  0.70631933  0.50732487  0.69745100  1
  O  O508  1  0.80270396  0.92160759  0.61115553  1
  C  C509  1  0.89812793  0.62414210  0.58736622  1
  C  C510  1  0.76420904  0.96370451  0.61864052  1
  C  C511  1  0.95927749  0.88242021  0.62793445  1
  C  C512  1  0.93214199  0.94869355  0.65603428  1
  H  H513  1  0.78723725  0.78865720  0.59763379  1
  C  C514  1  0.86295569  0.62046778  0.65409203  1
  C  C515  1  0.78792901  0.68090400  0.72951131  1
  H  H516  1  0.88839799  0.94445966  0.66390423  1
  H  H517  1  0.86549421  0.56889457  0.69904581  1
  H  H518  1  0.92494538  0.57266840  0.58535106  1
  C  C519  1  0.82382569  0.68068097  0.65870367  1
  H  H520  1  0.93686948  0.82637784  0.61064090  1
  H  H521  1  0.96950273  0.77100534  0.54797351  1
  C  C522  1  0.81888143  0.74204328  0.59980741  1
  H  H523  1  0.63706222  0.78917051  0.69566225  1
  H  H524  1  0.55131806  0.51926162  0.63821449  1
  O  O525  1  0.75912648  0.74141070  0.74366811  1
  C  C526  1  0.99945180  0.73489700  0.58579647  1
  Cu  Cu527  1  0.78409659  0.50662060  0.74411348  1
  C  C528  1  0.50343918  0.62859610  0.64731446  1
  H  H529  1  0.61797660  0.57838301  0.54568780  1
  O  O530  1  0.56211004  0.89511883  0.72938282  1
  O  O531  1  0.66733059  0.75418932  0.83698623  1
  C  C532  1  0.63249123  0.71161002  0.87090848  1
  O  O533  1  0.62157771  0.64469640  0.83849920  1
  H  H534  1  0.60490350  0.96338432  0.85680433  1
  C  C535  1  0.60734067  0.73144458  0.95245086  1
  H  H536  1  0.53376890  0.94208296  0.93458743  1
  H  H537  1  0.64032000  0.85084078  0.94717739  1
  H  H538  1  0.69588972  0.99491914  0.83590227  1
  H  H539  1  0.56889798  0.61370742  0.97207842  1
  H  H540  1  0.53461439  0.83116432  0.86032903  1
  C  C541  1  0.57714986  0.67649863  0.99836659  1
  H  H542  1  0.99942688  0.76883732  0.96738890  1
  H  H543  1  0.92170708  0.86992213  0.90128127  1
  O  O544  1  0.72695650  0.81205989  0.96158140  1
  C  C545  1  0.52725445  0.96274103  0.75675329  1
  O  O546  1  0.86206312  0.75421017  0.97170632  1
  C  C547  1  0.98270962  0.81929051  0.83221109  1
  C  C548  1  0.81941454  0.96030231  0.96806944  1
  O  O549  1  0.95774342  0.74350734  0.82722550  1
  H  H550  1  0.95563413  0.62028554  0.82798326  1
  C  C551  1  0.84020920  0.88764824  0.99814086  1
  H  H552  1  0.95062240  0.62088497  0.95853099  1
  C  C553  1  0.83881477  0.81134204  0.94530316  1
  Cu  Cu554  1  0.74189887  0.77840187  0.85401157  1
  C  C555  1  0.98578222  0.66995498  0.82937050  1
  C  C556  1  0.98190461  0.95988408  0.88458612  1
  H  H557  1  0.51493035  0.70824120  0.82206037  1
  H  H558  1  0.79937049  0.95552118  0.90656894  1
  O  O559  1  0.78831389  0.61854457  0.77653859  1
  O  O560  1  0.81391396  0.81379161  0.87321338  1
  C  C561  1  0.96125871  0.88308823  0.87519850  1
  C  C562  1  0.50422512  0.98110177  0.90755415  1
  C  C563  1  0.61658236  0.80859263  0.98554068  1
  O  O564  1  0.68389545  0.50591915  0.87164121  1
  Cu  Cu565  1  0.66804654  0.57309264  0.77432533  1
  O  O566  1  0.99066855  0.51193218  0.98050671  1
  C  C567  1  0.99339528  0.60739271  0.96478525  1
