# generated using pymatgen
data_CuH26C34(N2O)2
_symmetry_space_group_name_H-M   'P 1'
_cell_length_a   8.73791184
_cell_length_b   12.84629906
_cell_length_c   22.24057868
_cell_angle_alpha   90.00000000
_cell_angle_beta   90.00000000
_cell_angle_gamma   90.00000000
_symmetry_Int_Tables_number   1
_chemical_formula_structural   CuH26C34(N2O)2
_chemical_formula_sum   'Cu4 H104 C136 N16 O8'
_cell_volume   2496.50114753
_cell_formula_units_Z   4
loop_
 _symmetry_equiv_pos_site_id
 _symmetry_equiv_pos_as_xyz
  1  'x, y, z'
loop_
 _atom_site_type_symbol
 _atom_site_label
 _atom_site_symmetry_multiplicity
 _atom_site_fract_x
 _atom_site_fract_y
 _atom_site_fract_z
 _atom_site_occupancy
  C  C0  1  0.45303905  0.32504685  0.13538309  1
  C  C1  1  0.31454141  0.45509032  0.07736519  1
  Cu  Cu2  1  0.42332526  0.07545722  0.11648505  1
  H  H3  1  0.48654711  0.49247583  0.14566534  1
  C  C4  1  0.30044702  0.25912332  0.06502288  1
  N  N5  1  0.44910932  0.05087722  0.20539459  1
  C  C6  1  0.10605496  0.32469319  0.19470321  1
  Cu  Cu7  1  0.15446396  0.11999049  0.14721987  1
  N  N8  1  0.11906022  0.22327828  0.20259446  1
  H  H9  1  0.11980040  0.34091768  0.14718951  1
  C  C10  1  0.25274864  0.36276226  0.04806185  1
  H  H11  1  0.25634883  0.19174919  0.04228605  1
  C  C12  1  0.42574343  0.43130243  0.12097862  1
  C  C13  1  0.47600278  0.01615514  0.01018486  1
  N  N14  1  0.39853247  0.23920209  0.10870405  1
  H  H15  1  0.46453289  0.20307037  0.22032217  1
  C  C16  1  0.09696666  0.40038791  0.23851995  1
  H  H17  1  0.08826380  0.48380789  0.23099405  1
  C  C18  1  0.45045512  0.13273064  0.24419196  1
  C  C19  1  0.10308779  0.36188083  0.01464870  1
  H  H20  1  0.07041588  0.28429433  0.00266935  1
  H  H21  1  0.45842762  0.47097447  0.00007449  1
  C  C22  1  0.11622389  0.25411570  0.30858581  1
  C  C23  1  0.08761797  0.36123001  0.29771167  1
  C  C24  1  0.19947232  0.41737233  0.39667803  1
  C  C25  1  0.07808404  0.42969221  0.35467066  1
  H  H26  1  0.30367215  0.37155877  0.39009013  1
  C  C27  1  0.49608675  0.01283775  0.40268966  1
  H  H28  1  0.05452341  0.29291018  0.45553332  1
  H  H29  1  0.11503175  0.22363044  0.35343027  1
  C  C30  1  0.46859344  0.13225411  0.30659070  1
  C  C31  1  0.33138913  0.48619114  0.48151224  1
  C  C32  1  0.46007906  0.03411163  0.33736880  1
  H  H33  1  0.49283144  0.20359047  0.33228682  1
  C  C34  1  0.17898275  0.48671926  0.44550377  1
  H  H35  1  0.43435495  0.46506633  0.33356743  1
  H  H36  1  0.13493045  0.10496314  0.25689950  1
  C  C37  1  0.12588752  0.18981037  0.25886902  1
  C  C38  1  0.26296195  0.16734190  0.61906727  1
  C  C39  1  0.37481282  0.40875793  0.52531997  1
  C  C40  1  0.10874196  0.13905427  0.60246177  1
  C  C41  1  0.34677927  0.10150230  0.65874544  1
  H  H42  1  0.38509236  0.31469291  0.62499843  1
  C  C43  1  0.35386056  0.25486480  0.59021572  1
  H  H44  1  0.03419658  0.19409513  0.57932548  1
  O  O45  1  0.28717535  0.33302784  0.54290115  1
  H  H46  1  0.00108902  0.40701203  0.54739695  1
  H  H47  1  0.45374023  0.22656739  0.56340369  1
  H  H48  1  0.46730303  0.11314657  0.66925436  1
  N  N49  1  0.03227920  0.06439796  0.62800189  1
  C  C50  1  0.11130747  0.00607749  0.66741549  1
  H  H51  1  0.28593218  0.30353845  0.74622004  1
  H  H52  1  0.17578141  0.49860124  0.55200391  1
  C  C53  1  0.26765397  0.01710040  0.68347009  1
  H  H54  1  0.49392190  0.41587257  0.73582891  1
  H  H55  1  0.11830778  0.41300039  0.97395317  1
  C  C56  1  0.43357691  0.39156773  0.88322940  1
  H  H57  1  0.18058653  0.15279666  0.84085814  1
  N  N58  1  0.16799491  0.38801751  0.80355102  1
  O  O59  1  0.12037804  0.08414598  0.92436951  1
  C  C60  1  0.08842911  0.17159558  0.87436764  1
  C  C61  1  0.25602339  0.08924275  0.94792229  1
  C  C62  1  0.43845125  0.34485230  0.82582115  1
  C  C63  1  0.36781770  0.16289019  0.92779673  1
  H  H64  1  0.11963582  0.24398527  0.89736373  1
  C  C65  1  0.30171826  0.34426130  0.79118781  1
  H  H66  1  0.34436069  0.22410505  0.88949610  1
  C  C67  1  0.17270680  0.44178489  0.85562466  1
  C  C68  1  0.29644518  0.44559696  0.89609501  1
  H  H69  1  0.01517441  0.26026977  0.76544805  1
  H  H70  1  0.28878447  0.49001394  0.93772536  1
  H  H71  1  0.06625532  0.48686255  0.85306541  1
  C  C72  1  0.32323399  0.01667318  0.98934683  1
  C  C73  1  0.24267320  0.92529880  0.01611238  1
  H  H74  1  0.34331317  0.61061103  0.20851612  1
  C  C75  1  0.17266619  0.80551706  0.09674459  1
  O  O76  1  0.36052337  0.93278660  0.11492465  1
  C  C77  1  0.10715253  0.62592590  0.17052466  1
  C  C78  1  0.21943847  0.62845394  0.21508359  1
  H  H79  1  0.37566076  0.77688317  0.01968551  1
  C  C80  1  0.27330713  0.88760872  0.07897384  1
  H  H81  1  0.18994298  0.79307456  0.14596033  1
  H  H82  1  0.28537200  0.53659221  0.06850264  1
  H  H83  1  0.13546782  0.61043062  0.12261542  1
  C  C84  1  0.07767380  0.75539048  0.06266891  1
  H  H85  1  0.02245113  0.96348525  0.09007344  1
  H  H86  1  0.42301782  0.90095601  0.20019102  1
  H  H87  1  0.00160080  0.69298669  0.08025999  1
  O  O88  1  0.48492835  0.64246763  0.01205937  1
  H  H89  1  0.00190094  0.85419238  0.18920655  1
  C  C90  1  0.44357050  0.95975175  0.23634667  1
  H  H91  1  0.34073927  0.61659643  0.42040988  1
  H  H92  1  0.06052741  0.67949961  0.33965631  1
  H  H93  1  0.38783838  0.85635219  0.40745330  1
  H  H94  1  0.12668424  0.97204262  0.36888828  1
  H  H95  1  0.45089043  0.86625916  0.31571131  1
  C  C96  1  0.40110539  0.57095730  0.45649991  1
  C  C97  1  0.45394625  0.91762931  0.43098958  1
  C  C98  1  0.04884774  0.55366026  0.45848972  1
  C  C99  1  0.46039946  0.94598485  0.29791973  1
  C  C100  1  0.08234257  0.89519942  0.28377133  1
  C  C101  1  0.04969885  0.96475306  0.33001077  1
  C  C102  1  0.06192833  0.66821116  0.29111711  1
  N  N103  1  0.20657843  0.64631011  0.27467904  1
  H  H104  1  0.18470094  0.84634146  0.28423322  1
  C  C105  1  0.14512700  0.62145576  0.62127472  1
  H  H106  1  0.47083907  0.85269414  0.60575293  1
  H  H107  1  0.26397908  0.62575987  0.53629795  1
  C  C108  1  0.02874021  0.73127383  0.69344250  1
  N  N109  1  0.23194502  0.61731600  0.72421377  1
  C  C110  1  0.24214465  0.58453406  0.66774823  1
  C  C111  1  0.15873298  0.58693140  0.55577242  1
  C  C112  1  0.13763947  0.69236369  0.73605540  1
  H  H113  1  0.46791131  0.83264616  0.50846857  1
  H  H114  1  0.34081200  0.53618642  0.66465987  1
  H  H115  1  0.32582281  0.96198199  0.71328766  1
  C  C116  1  0.02793855  0.69729126  0.63474811  1
  H  H117  1  0.03890454  0.94015925  0.67976687  1
  O  O118  1  0.03151035  0.60878678  0.50822218  1
  H  H119  1  0.11421861  0.90618136  0.93255751  1
  Cu  Cu120  1  0.36820161  0.56830645  0.78167495  1
  C  C121  1  0.42221900  0.86820095  0.90002933  1
  H  H122  1  0.15025452  0.72959419  0.87584069  1
  H  H123  1  0.43526131  0.60019457  0.89319619  1
  C  C124  1  0.13273647  0.87946117  0.97908727  1
  C  C125  1  0.41569451  0.68411260  0.87951371  1
  C  C126  1  0.46399749  0.74718786  0.98971632  1
  N  N127  1  0.38816494  0.69533409  0.82279887  1
  H  H128  1  0.14504258  0.71833467  0.78256573  1
  C  C129  1  0.42845638  0.76389349  0.92213962  1
  C  C130  1  0.36873535  0.78997028  0.80136537  1
  H  H131  1  0.43467444  0.93209456  0.93412060  1
  C  C132  1  0.03316948  0.70923795  0.88928244  1
  C  C133  1  0.39032058  0.87944201  0.83859315  1
  H  H134  1  0.40614836  0.95865647  0.82116162  1
  C  C135  1  0.07071967  0.78544646  0.99828821  1
  H  H136  1  0.34902635  0.79175185  0.75321784  1
  O  O137  1  0.96382428  0.42966014  0.03205380  1
  H  H138  1  0.87913004  0.47915166  0.11808295  1
  C  C139  1  0.73701236  0.09925243  0.01412493  1
  H  H140  1  0.53017495  0.30641718  0.17276765  1
  H  H141  1  0.86289751  0.29425781  0.23277845  1
  C  C142  1  0.94318007  0.02486617  0.07293847  1
  C  C143  1  0.68821765  0.41046298  0.23399336  1
  H  H144  1  0.95062327  0.26856179  0.10441388  1
  H  H145  1  0.71957357  0.26293077  0.03331790  1
  C  C146  1  0.91223510  0.19862733  0.07969691  1
  C  C147  1  0.78364514  0.19335055  0.04270287  1
  H  H148  1  0.70044556  0.44094055  0.18597913  1
  C  C149  1  0.82080682  0.01024068  0.03291202  1
  N  N150  1  0.98373830  0.11447231  0.09651223  1
  C  C151  1  0.69790004  0.46764300  0.01394773  1
  C  C152  1  0.78335344  0.33249640  0.26220209  1
  C  C153  1  0.54258663  0.43457929  0.31767707  1
  C  C154  1  0.64498928  0.36638302  0.35368939  1
  C  C155  1  0.65170468  0.06706881  0.48558302  1
  C  C156  1  0.88589288  0.18507451  0.47189939  1
  H  H157  1  0.84497520  0.24973943  0.34349614  1
  C  C158  1  0.94822631  0.49714202  0.35568216  1
  H  H159  1  0.70968238  0.31550048  0.44357744  1
  C  C160  1  0.77142641  0.30896189  0.32160565  1
  C  C161  1  0.88482745  0.09081203  0.37288119  1
  C  C162  1  0.96591150  0.27476190  0.48810049  1
  H  H163  1  0.77983738  0.13608652  0.37253474  1
  H  H164  1  0.63068660  0.16175963  0.40890901  1
  C  C165  1  0.60255630  0.08466210  0.42983271  1
  C  C166  1  0.90911100  0.02410306  0.32353822  1
  C  C167  1  0.62380324  0.35334996  0.41541668  1
  N  N168  1  0.56927157  0.45737732  0.26191718  1
  O  O169  1  0.96083114  0.11748332  0.41930544  1
  H  H170  1  0.53163599  0.39346660  0.44179927  1
  H  H171  1  0.73378211  0.07393201  0.25437494  1
  C  C172  1  0.82140397  0.01672509  0.26850210  1
  H  H173  1  0.99115753  0.46198656  0.63262174  1
  C  C174  1  0.81380364  0.30299319  0.57410686  1
  C  C175  1  0.77601087  0.36618426  0.63047618  1
  C  C176  1  0.59480139  0.42657350  0.70802568  1
  H  H177  1  0.55925681  0.29183487  0.65328551  1
  C  C178  1  0.63924352  0.35502881  0.66507305  1
  H  H179  1  0.62880655  0.18980401  0.58979755  1
  H  H180  1  0.74850099  0.23154331  0.71716471  1
  C  C181  1  0.72352253  0.21398691  0.56011675  1
  H  H182  1  0.57373488  0.39385943  0.57690756  1
  C  C183  1  0.87277438  0.44788280  0.64988131  1
  C  C184  1  0.52413570  0.44290347  0.54286466  1
  C  C185  1  0.93208874  0.33533197  0.53713585  1
  H  H186  1  0.74897781  0.01001309  0.67649860  1
  C  C187  1  0.75621625  0.15661625  0.50575135  1
  C  C188  1  0.66339898  0.14360247  0.78856429  1
  C  C189  1  0.92156332  0.22402931  0.78955598  1
  H  H190  1  0.79823492  0.08501431  0.91771767  1
  C  C191  1  0.56667228  0.45053751  0.97750445  1
  C  C192  1  0.80576556  0.11616383  0.87251335  1
  C  C193  1  0.57867889  0.40146406  0.92048013  1
  C  C194  1  0.84107959  0.37732295  0.93924663  1
  C  C195  1  0.92992053  0.17668150  0.84732100  1
  H  H196  1  0.73686702  0.32954812  0.85497488  1
  C  C197  1  0.72143938  0.36384654  0.89955717  1
  N  N198  1  0.67968728  0.10094923  0.84272840  1
  H  H199  1  0.54473990  0.30821951  0.81377576  1
  H  H200  1  0.59797027  0.22884847  0.92866671  1
  C  C201  1  0.51409737  0.17155286  0.94770391  1
  H  H202  1  0.93821370  0.33539721  0.92045306  1
  C  C203  1  0.84406541  0.42426200  0.99728208  1
  H  H204  1  0.55396707  0.11906465  0.76750421  1
  C  C205  1  0.57037212  0.09846976  0.99232773  1
  C  C206  1  0.77627339  0.20544684  0.76227924  1
  C  C207  1  0.80282165  0.54504632  0.11105430  1
  H  H208  1  0.72089086  0.78016680  0.17841086  1
  C  C209  1  0.70783226  0.71463071  0.14703198  1
  H  H210  1  0.80514839  0.93241988  0.01010532  1
  C  C211  1  0.95178730  0.63906957  0.19175948  1
  H  H212  1  0.57110323  0.78726599  0.00402509  1
  C  C213  1  0.59523741  0.63466009  0.05887298  1
  C  C214  1  0.60043686  0.71348606  0.10110671  1
  C  C215  1  0.69805486  0.54913240  0.06188712  1
  C  C216  1  0.81467845  0.63119372  0.15011631  1
  C  C217  1  0.98494445  0.90186310  0.23118504  1
  N  N218  1  0.85354181  0.95553761  0.22395948  1
  H  H219  1  0.51289010  0.77787976  0.09637059  1
  H  H220  1  0.81681000  0.67977656  0.01253223  1
  H  H221  1  0.51294014  0.95673088  0.03973736  1
  H  H222  1  0.74865970  0.89016686  0.36751575  1
  N  N223  1  0.93141681  0.88848039  0.47446233  1
  C  C224  1  0.62802600  0.74635116  0.40184260  1
  H  H225  1  0.83969762  0.60736664  0.40894216  1
  H  H226  1  0.81704516  0.68065878  0.27094300  1
  C  C227  1  0.63886649  0.68509480  0.45609340  1
  C  C228  1  0.94386779  0.55686369  0.40806451  1
  C  C229  1  0.74145454  0.82420171  0.39976128  1
  C  C230  1  0.82384278  0.81388039  0.45557619  1
  C  C231  1  0.54737463  0.59413465  0.47899386  1
  H  H232  1  0.54961195  0.72971901  0.36610878  1
  C  C233  1  0.51094157  0.90574385  0.48830021  1
  H  H234  1  0.92640920  0.96469201  0.45514036  1
  C  C235  1  0.93066393  0.65971657  0.25371183  1
  H  H236  1  0.86722389  0.50268986  0.31728297  1
  C  C237  1  0.75383708  0.73427628  0.49201786  1
  C  C238  1  0.60074341  0.97986198  0.51966716  1
  C  C239  1  0.72972064  0.92990063  0.69914173  1
  H  H240  1  0.62238280  0.79053211  0.57798143  1
  H  H241  1  0.94164809  0.88884939  0.51955021  1
  C  C242  1  0.64611814  0.74599282  0.69895110  1
  O  O243  1  0.64711448  0.96471591  0.57445222  1
  H  H244  1  0.93057169  0.78675273  0.70359351  1
  C  C245  1  0.59656957  0.86025669  0.60720226  1
  C  C246  1  0.65366310  0.84311416  0.66955153  1
  H  H247  1  0.80241217  0.70494517  0.53256049  1
  H  H248  1  0.59735588  0.67192058  0.68050106  1
  H  H249  1  0.88039666  0.59151077  0.70516664  1
  C  C250  1  0.61245382  0.52366684  0.52153819  1
  H  H251  1  0.73380416  0.53315973  0.53523597  1
  N  N252  1  0.68040894  0.51140097  0.72207028  1
  C  C253  1  0.81490223  0.51966574  0.69144466  1
  H  H254  1  0.95951350  0.72415303  0.59624416  1
  C  C255  1  0.73671677  0.81262061  0.78482131  1
  C  C256  1  0.75509110  0.63728276  0.92226602  1
  H  H257  1  0.63655024  0.61062325  0.93021485  1
  H  H258  1  0.94950792  0.64547381  0.80227088  1
  C  C259  1  0.92730908  0.66634619  0.85064564  1
  H  H260  1  0.75802069  0.78211951  0.83141034  1
  N  N261  1  0.78803971  0.62653570  0.86314065  1
  C  C262  1  0.83875250  0.68648851  0.96554691  1
  Cu  Cu263  1  0.64880375  0.60743940  0.79117596  1
  C  C264  1  0.98736922  0.72776283  0.95069946  1
  H  H265  1  0.79881556  0.98097071  0.79040851  1
  C  C266  1  0.76139453  0.91421338  0.76045430  1
  N  N267  1  0.68743392  0.73140133  0.75475496  1
