# generated using pymatgen
data_Zn4H20C37O20
_symmetry_space_group_name_H-M   'P 1'
_cell_length_a   5.01132167
_cell_length_b   29.42382374
_cell_length_c   30.04128586
_cell_angle_alpha   90.00000000
_cell_angle_beta   90.00000000
_cell_angle_gamma   90.00000000
_symmetry_Int_Tables_number   1
_chemical_formula_structural   Zn4H20C37O20
_chemical_formula_sum   'Zn16 H80 C148 O80'
_cell_volume   4429.65506261
_cell_formula_units_Z   4
loop_
 _symmetry_equiv_pos_site_id
 _symmetry_equiv_pos_as_xyz
  1  'x, y, z'
loop_
 _atom_site_type_symbol
 _atom_site_label
 _atom_site_symmetry_multiplicity
 _atom_site_fract_x
 _atom_site_fract_y
 _atom_site_fract_z
 _atom_site_occupancy
  H  H0  1  0.42347691  0.05505880  0.08649315  1
  C  C1  1  0.28884567  0.08188201  0.07517749  1
  C  C2  1  0.36222639  0.12635073  0.14634169  1
  C  C3  1  0.91393563  0.15142065  0.04618265  1
  C  C4  1  0.03519657  0.15176185  0.08856367  1
  O  O5  1  0.57435510  0.10775515  0.15743200  1
  O  O6  1  0.25473846  0.15557192  0.17168217  1
  C  C7  1  0.23000112  0.12025559  0.10049375  1
  O  O8  1  0.85893277  0.22712547  0.15802563  1
  H  H9  1  0.99142923  0.18062264  0.11056306  1
  Zn  Zn10  1  0.84265658  0.15721160  0.18964593  1
  H  H11  1  0.10179762  0.21554780  0.00374174  1
  C  C12  1  0.15142133  0.07959479  0.03515151  1
  O  O13  1  0.75317205  0.18333490  0.03165774  1
  H  H14  1  0.38131655  0.23053973  0.03827295  1
  C  C15  1  0.97577398  0.11256946  0.02011425  1
  O  O16  1  0.31984471  0.00639849  0.02099837  1
  H  H17  1  0.12532616  0.24505508  0.07799013  1
  C  C18  1  0.28736203  0.23562576  0.00425051  1
  C  C19  1  0.18885780  0.03823133  0.00671793  1
  O  O20  1  0.67249567  0.09868203  0.46530734  1
  C  C21  1  0.79012018  0.10795934  0.43097423  1
  H  H22  1  0.93137437  0.12537424  0.34130848  1
  O  O23  1  0.96777781  0.07958970  0.41997466  1
  C  C24  1  0.71699555  0.18228754  0.27908368  1
  H  H25  1  0.45877087  0.17656493  0.45310351  1
  H  H26  1  0.30634359  0.23461214  0.47355618  1
  H  H27  1  0.38268688  0.23761522  0.32483073  1
  C  C28  1  0.66765257  0.18335452  0.32809766  1
  C  C29  1  0.51227094  0.17618720  0.41688272  1
  C  C30  1  0.70204180  0.14635058  0.39870868  1
  C  C31  1  0.78340188  0.14971412  0.35549439  1
  C  C32  1  0.39463861  0.20919108  0.39070736  1
  C  C33  1  0.46849883  0.21077782  0.34602855  1
  H  H34  1  0.97864038  0.20908205  0.45372607  1
  C  C35  1  0.12982339  0.24066309  0.45081608  1
  O  O36  1  0.21211590  0.24195311  0.40585534  1
  Zn  Zn37  1  0.95031465  0.03532866  0.48494884  1
  O  O38  1  0.86954429  0.15306971  0.26193262  1
  O  O39  1  0.59784455  0.21046442  0.25312684  1
  O  O40  1  0.11862849  0.18931649  0.66811206  1
  O  O41  1  0.23008210  0.05213695  0.59827593  1
  Zn  Zn42  1  0.08370785  0.05521896  0.65867315  1
  O  O43  1  0.00204475  0.11983117  0.68189422  1
  H  H44  1  0.58729673  0.09515266  0.63659626  1
  H  H45  1  0.96527647  0.21672054  0.59013144  1
  C  C46  1  0.60796835  0.12202805  0.61272619  1
  C  C47  1  0.81720095  0.19028752  0.58457696  1
  O  O48  1  0.10801120  0.08427781  0.53626032  1
  C  C49  1  0.80349089  0.15680361  0.61811394  1
  C  C50  1  0.44569019  0.12260911  0.57664518  1
  C  C51  1  0.66171886  0.19010017  0.54520865  1
  C  C52  1  0.48080412  0.15461329  0.54235184  1
  C  C53  1  0.98320078  0.15525699  0.65790300  1
  C  C54  1  0.24264256  0.08505346  0.57080128  1
  O  O55  1  0.37021660  0.00814947  0.69082703  1
  H  H56  1  0.35507504  0.15344323  0.51174836  1
  O  O57  1  0.72098650  0.01622202  0.64671132  1
  O  O58  1  0.68319881  0.21889148  0.50786813  1
  Zn  Zn59  1  0.18929823  0.21159586  0.73634111  1
  O  O60  1  0.81637977  0.20916203  0.77391113  1
  H  H61  1  0.11396030  0.22763089  0.92369752  1
  C  C62  1  0.28859668  0.20456845  0.92837896  1
  C  C63  1  0.51466018  0.04276237  0.88449406  1
  C  C64  1  0.83784069  0.10178915  0.90436069  1
  C  C65  1  0.74534120  0.15346730  0.82962591  1
  O  O66  1  0.64257617  0.01454796  0.90766788  1
  O  O67  1  0.15994076  0.15661003  0.93097692  1
  H  H68  1  0.38766237  0.20157730  0.89476809  1
  O  O69  1  0.29811943  0.03177791  0.86665736  1
  C  C70  1  0.98937908  0.14266965  0.90007771  1
  C  C71  1  0.60007732  0.11319967  0.83615503  1
  C  C72  1  0.64750756  0.08795319  0.87363566  1
  H  H73  1  0.86549725  0.11205081  0.98877303  1
  H  H74  1  0.86119855  0.08389223  0.93548459  1
  C  C75  1  0.67098969  0.17888671  0.78791368  1
  C  C76  1  0.93688093  0.16651198  0.86151072  1
  H  H77  1  0.05047746  0.20025118  0.85723718  1
  C  C78  1  0.63038567  0.18208504  0.98343812  1
  H  H79  1  0.45941222  0.10225839  0.81109635  1
  H  H80  1  0.51739256  0.14949581  0.98552030  1
  C  C81  1  0.46593752  0.21817285  0.96545785  1
  H  H82  1  0.79130566  0.17648714  0.95896079  1
  O  O83  1  0.05784367  0.03783957  0.97018299  1
  O  O84  1  0.47594764  0.16365329  0.76520354  1
  C  C85  1  0.00052310  0.27653092  0.07396277  1
  C  C86  1  0.60618648  0.40577919  0.05933086  1
  O  O87  1  0.56134683  0.42877577  0.09316590  1
  C  C88  1  0.03983394  0.29898835  0.03350310  1
  C  C89  1  0.71865543  0.33535777  0.10450107  1
  H  H90  1  0.59684939  0.34955951  0.13146362  1
  Zn  Zn91  1  0.67697911  0.49671730  0.09474459  1
  O  O92  1  0.53265545  0.41759614  0.02159233  1
  C  C93  1  0.90821540  0.34054265  0.03140397  1
  C  C94  1  0.74941606  0.35918044  0.06561674  1
  C  C95  1  0.84340866  0.29252802  0.10949167  1
  O  O96  1  0.63406421  0.28780493  0.17916024  1
  C  C97  1  0.78267793  0.26566219  0.15005340  1
  Zn  Zn98  1  0.60847972  0.28417962  0.24766919  1
  O  O99  1  0.20317150  0.28305950  0.00093660  1
  H  H100  1  0.92638020  0.36153756  0.00112092  1
  C  C101  1  0.33523273  0.40333114  0.41541348  1
  H  H102  1  0.04475147  0.35081183  0.48751187  1
  C  C103  1  0.00984034  0.46225395  0.39444119  1
  O  O104  1  0.64897169  0.34811539  0.44321724  1
  H  H105  1  0.90396843  0.40254344  0.32843092  1
  C  C106  1  0.96607289  0.28072208  0.46862528  1
  H  H107  1  0.63130880  0.27405901  0.42707185  1
  C  C108  1  0.47428232  0.36204307  0.41074651  1
  C  C109  1  0.39771244  0.33661207  0.37388513  1
  C  C110  1  0.20539397  0.35023595  0.34204647  1
  C  C111  1  0.06078267  0.39061033  0.35064579  1
  C  C112  1  0.13212678  0.41685309  0.38641538  1
  C  C113  1  0.13891841  0.32423965  0.30051100  1
  H  H114  1  0.50275740  0.30302379  0.37428522  1
  H  H115  1  0.32243728  0.32273336  0.45765588  1
  H  H116  1  0.40224592  0.42760257  0.44147515  1
  C  C117  1  0.14788912  0.31748766  0.48250195  1
  C  C118  1  0.77563845  0.30039590  0.43705808  1
  O  O119  1  0.29609301  0.29100337  0.29299641  1
  O  O120  1  0.86069999  0.48223180  0.36943642  1
  H  H121  1  0.88974694  0.31025272  0.40417961  1
  O  O122  1  0.93037898  0.32761194  0.27792184  1
  O  O123  1  0.08739539  0.48227502  0.43079475  1
  O  O124  1  0.66232024  0.49362912  0.49426766  1
  H  H125  1  0.84351898  0.46384101  0.59571870  1
  C  C126  1  0.55826717  0.35040450  0.59389482  1
  O  O127  1  0.30385742  0.31481233  0.53003777  1
  O  O128  1  0.72516554  0.37233013  0.68235783  1
  H  H129  1  0.53898154  0.32068979  0.61499882  1
  C  C130  1  0.74734804  0.43308556  0.58201494  1
  C  C131  1  0.73483168  0.38704522  0.60594906  1
  C  C132  1  0.54957346  0.43954467  0.54444083  1
  C  C133  1  0.38914305  0.35013818  0.54914554  1
  Zn  Zn134  1  0.33220622  0.38474959  0.70764503  1
  C  C135  1  0.85028111  0.38883487  0.65043513  1
  Zn  Zn136  1  0.76738897  0.38029787  0.53741915  1
  O  O137  1  0.08445010  0.40522405  0.65534773  1
  C  C138  1  0.38214006  0.40081698  0.53119484  1
  H  H139  1  0.70590013  0.29160845  0.52720938  1
  C  C140  1  0.50879283  0.48657206  0.52748054  1
  C  C141  1  0.82553673  0.26367362  0.51060425  1
  H  H142  1  0.21956322  0.40880853  0.50567481  1
  O  O143  1  0.21536508  0.28416929  0.74891436  1
  H  H144  1  0.97758893  0.25119174  0.53504409  1
  H  H145  1  0.89446436  0.32968469  0.94443748  1
  C  C146  1  0.25188199  0.39800466  0.91979480  1
  O  O147  1  0.43489731  0.42410382  0.90720608  1
  H  H148  1  0.51928603  0.29227476  0.95023664  1
  O  O149  1  0.08987412  0.40666992  0.94994810  1
  H  H150  1  0.40447868  0.38048063  0.83644123  1
  C  C151  1  0.91222367  0.28835870  0.88529536  1
  C  C152  1  0.18018163  0.31706234  0.82427489  1
  C  C153  1  0.28437653  0.31436973  0.77592157  1
  C  C154  1  0.01377306  0.28457652  0.84193767  1
  C  C155  1  0.98129876  0.32669688  0.91025392  1
  C  C156  1  0.16746513  0.35664951  0.89242591  1
  C  C157  1  0.26208538  0.35519076  0.84885002  1
  Zn  Zn158  1  0.72424209  0.44853290  0.95469210  1
  C  C159  1  0.61793507  0.25862227  0.94670026  1
  H  H160  1  0.94376701  0.25613266  0.82070127  1
  O  O161  1  0.42945566  0.34621777  0.76473322  1
  O  O162  1  0.74153227  0.25554583  0.90083925  1
  H  H163  1  0.79377900  0.26330276  0.96793007  1
  H  H164  1  0.33361968  0.60307318  0.01689497  1
  O  O165  1  0.61252218  0.66893890  0.08498195  1
  H  H166  1  0.48387219  0.72086798  0.04170408  1
  C  C167  1  0.94360121  0.67823953  0.14743599  1
  H  H168  1  0.42540082  0.60062831  0.18854884  1
  H  H169  1  0.79993179  0.58511944  0.08415128  1
  O  O170  1  0.41726535  0.52416514  0.14455989  1
  C  C171  1  0.14859219  0.65761230  0.17295812  1
  C  C172  1  0.20731091  0.54132727  0.12796710  1
  C  C173  1  0.81776001  0.65088435  0.11706256  1
  C  C174  1  0.89026800  0.60574432  0.11191969  1
  C  C175  1  0.11375816  0.58856631  0.13698132  1
  C  C176  1  0.25028864  0.61415634  0.16858889  1
  C  C177  1  0.26839075  0.68979073  0.20816740  1
  O  O178  1  0.63037841  0.53847899  0.03674706  1
  C  C179  1  0.88035327  0.71713917  0.02363962  1
  O  O180  1  0.49113171  0.67878937  0.22184932  1
  H  H181  1  0.88001874  0.71466952  0.15457456  1
  O  O182  1  0.14330324  0.72479991  0.21860977  1
  H  H183  1  0.18636997  0.66804607  0.03790939  1
  C  C184  1  0.66862929  0.70918548  0.05954067  1
  H  H185  1  0.91786097  0.64460937  0.00734776  1
  O  O186  1  0.07287065  0.51785619  0.10073888  1
  C  C187  1  0.04622191  0.67543070  0.01182034  1
  H  H188  1  0.70812045  0.73367327  0.08791015  1
  O  O189  1  0.21528954  0.58899615  0.45696781  1
  O  O190  1  0.85996000  0.60931001  0.42022054  1
  C  C191  1  0.08175140  0.61704041  0.43421427  1
  H  H192  1  0.91258013  0.66953246  0.37220371  1
  C  C193  1  0.20254475  0.66494424  0.42501761  1
  C  C194  1  0.07512187  0.68684879  0.38996192  1
  C  C195  1  0.39159011  0.68491271  0.45260677  1
  H  H196  1  0.48164146  0.66693724  0.47994249  1
  C  C197  1  0.47285166  0.72979058  0.44352506  1
  Zn  Zn198  1  0.00038820  0.53215833  0.48402470  1
  C  C199  1  0.17063616  0.72982169  0.37900644  1
  O  O200  1  0.65809058  0.74860066  0.47341191  1
  O  O201  1  0.85457553  0.73855021  0.32117408  1
  C  C202  1  0.36931248  0.74978390  0.40631972  1
  Zn  Zn203  1  0.76261955  0.72698987  0.25559551  1
  H  H204  1  0.98173647  0.66875551  0.53724219  1
  C  C205  1  0.90860928  0.58601434  0.57720768  1
  O  O206  1  0.29706255  0.70768371  0.72978722  1
  H  H207  1  0.01805788  0.59564187  0.66282252  1
  C  C208  1  0.03515052  0.67072236  0.57310163  1
  O  O209  1  0.90614921  0.58456987  0.53565737  1
  C  C210  1  0.14625185  0.66722650  0.66277349  1
  C  C211  1  0.17525883  0.70651248  0.63782536  1
  C  C212  1  0.21003876  0.67103969  0.71267507  1
  O  O213  1  0.87341784  0.55198149  0.59976892  1
  C  C214  1  0.04289626  0.62794004  0.64271546  1
  C  C215  1  0.00785394  0.63079955  0.59740140  1
  C  C216  1  0.11732441  0.71125812  0.59202668  1
  O  O217  1  0.13543116  0.63826591  0.73616196  1
  H  H218  1  0.95810236  0.73139217  0.51781703  1
  H  H219  1  0.26378697  0.73522790  0.65537870  1
  O  O220  1  0.29963649  0.50730412  0.53234914  1
  O  O221  1  0.16851376  0.67557466  0.96583580  1
  O  O222  1  0.62678080  0.63379265  0.81948995  1
  O  O223  1  0.96060407  0.58989320  0.83960942  1
  C  C224  1  0.71989436  0.57678384  0.92412606  1
  H  H225  1  0.36243130  0.66279212  0.88876889  1
  H  H226  1  0.86691220  0.55042314  0.91290184  1
  C  C227  1  0.75291894  0.61097175  0.84867020  1
  C  C228  1  0.63019703  0.60869655  0.89398584  1
  C  C229  1  0.33576241  0.64139520  0.95511055  1
  C  C230  1  0.43961514  0.63875596  0.91167186  1
  H  H231  1  0.40188662  0.72478099  0.90916790  1
  C  C232  1  0.60202758  0.57523565  0.96721730  1
  C  C233  1  0.42088214  0.60688935  0.98344562  1
  O  O234  1  0.15652183  0.70510826  0.84669807  1
  Zn  Zn235  1  0.22282966  0.64493004  0.80211420  1
  H  H236  1  0.56802257  0.70287843  0.97406597  1
  H  H237  1  0.88175749  0.72802241  0.95546332  1
  C  C238  1  0.11008877  0.74742814  0.84271504  1
  C  C239  1  0.72478094  0.72780690  0.98211493  1
  O  O240  1  0.84682723  0.50782586  0.98040498  1
  C  C241  1  0.70333674  0.53877709  0.99636020  1
  O  O242  1  0.94181442  0.83983524  0.21455101  1
  C  C243  1  0.45521468  0.82554205  0.06843370  1
  C  C244  1  0.76198222  0.89432099  0.05295636  1
  O  O245  1  0.65410803  0.78410656  0.22043541  1
  C  C246  1  0.44413520  0.79118302  0.13830436  1
  H  H247  1  0.91261303  0.87738508  0.13807541  1
  H  H248  1  0.37777048  0.83344342  0.03560657  1
  O  O249  1  0.95229023  0.91802642  0.06649103  1
  C  C250  1  0.34206739  0.79116327  0.09403571  1
  H  H251  1  0.93311117  0.79004566  0.03648001  1
  C  C252  1  0.64492430  0.82094909  0.15251015  1
  C  C253  1  0.75888492  0.85344248  0.12622631  1
  C  C254  1  0.65497684  0.85673521  0.08284974  1
  C  C255  1  0.76048139  0.81569420  0.19848095  1
  C  C256  1  0.03923767  0.75755276  0.03556987  1
  O  O257  1  0.15499679  0.76136407  0.08620612  1
  H  H258  1  0.36131039  0.76634894  0.16196618  1
  H  H259  1  0.20951427  0.76101616  0.01341472  1
  O  O260  1  0.64536434  0.90470426  0.01624125  1
  Zn  Zn261  1  0.23513703  0.93628518  0.01923905  1
  O  O262  1  0.15577230  0.79300096  0.33031875  1
  H  H263  1  0.44875886  0.78333706  0.39507256  1
  C  C264  1  0.52590749  0.88361235  0.33082371  1
  H  H265  1  0.93036550  0.84443678  0.37421695  1
  H  H266  1  0.26202916  0.93919332  0.39409361  1
  Zn  Zn267  1  0.04374304  0.84454285  0.28612002  1
  O  O268  1  0.29570142  0.89394011  0.31787059  1
  O  O269  1  0.66081797  0.85317825  0.31094036  1
  C  C270  1  0.84429379  0.87251867  0.39456206  1
  C  C271  1  0.61014479  0.89471382  0.37737016  1
  C  C272  1  0.46623253  0.92594202  0.40328084  1
  C  C273  1  0.59491680  0.93658135  0.44249305  1
  C  C274  1  0.95078387  0.88286758  0.43554889  1
  C  C275  1  0.83510908  0.92003207  0.45844410  1
  H  H276  1  0.88516468  0.79857149  0.44082135  1
  O  O277  1  0.18549647  0.85610429  0.45611445  1
  O  O278  1  0.23417593  0.98789573  0.46105629  1
  C  C279  1  0.75980028  0.79532858  0.47302635  1
  H  H280  1  0.59088886  0.82031926  0.47059589  1
  C  C281  1  0.46430667  0.97560334  0.46869136  1
  C  C282  1  0.05264239  0.75556124  0.34109565  1
  H  H283  1  0.93783149  0.93462885  0.48764947  1
  C  C284  1  0.93937759  0.80320695  0.51259684  1
  C  C285  1  0.32610948  0.87043548  0.66064880  1
  O  O286  1  0.11192645  0.80262128  0.68993983  1
  C  C287  1  0.12481565  0.84512655  0.69217742  1
  H  H288  1  0.79417540  0.95299602  0.59881247  1
  H  H289  1  0.10044452  0.86999818  0.52187266  1
  C  C290  1  0.33506058  0.91548533  0.67334486  1
  H  H291  1  0.20551299  0.92555718  0.70409275  1
  C  C292  1  0.78391104  0.81797847  0.55173002  1
  C  C293  1  0.66359563  0.92641145  0.61552559  1
  C  C294  1  0.51920433  0.94321014  0.65114800  1
  C  C295  1  0.63836519  0.88172075  0.59992186  1
  C  C296  1  0.46523171  0.85343424  0.62561345  1
  H  H297  1  0.58701778  0.80023227  0.55557580  1
  C  C298  1  0.53947104  0.99284917  0.66451320  1
  H  H299  1  0.89941561  0.81250608  0.58599987  1
  H  H300  1  0.42936965  0.81693110  0.61764042  1
  O  O301  1  0.77809466  0.87067841  0.56369530  1
  O  O302  1  0.15551703  0.75261334  0.57271562  1
  O  O303  1  0.03641888  0.86371857  0.72521050  1
  C  C304  1  0.08263064  0.76099483  0.52515777  1
  Zn  Zn305  1  0.08197122  0.76706792  0.74721046  1
  H  H306  1  0.26963972  0.75738214  0.50286682  1
  C  C307  1  0.14494664  0.84088038  0.50010730  1
  O  O308  1  0.60457963  0.99083448  0.50012057  1
  H  H309  1  0.35196854  0.82697453  0.50774153  1
  C  C310  1  0.35878509  0.76134667  0.91173327  1
  C  C311  1  0.10369971  0.82283840  0.88108682  1
  H  H312  1  0.43905707  0.85592726  0.97376850  1
  H  H313  1  0.95072199  0.83464954  0.85873872  1
  C  C314  1  0.19232691  0.77835594  0.87858517  1
  O  O315  1  0.20557909  0.92714805  0.95088116  1
  C  C316  1  0.37017384  0.83229908  0.94783107  1
  O  O317  1  0.00613761  0.92031590  0.88903157  1
  O  O318  1  0.60465789  0.77555128  0.98330801  1
  C  C319  1  0.20523773  0.84980172  0.91535472  1
  C  C320  1  0.44983366  0.78605335  0.94857189  1
  C  C321  1  0.12552129  0.90149118  0.91867071  1
  Zn  Zn322  1  0.03100419  0.99408993  0.90917718  1
  O  O323  1  0.97855310  0.76582029  0.81094846  1
