# generated using pymatgen
data_Cu4H20C37O20
_symmetry_space_group_name_H-M   'P 1'
_cell_length_a   4.12940081
_cell_length_b   30.40023511
_cell_length_c   30.71811147
_cell_angle_alpha   90.00000000
_cell_angle_beta   90.00000000
_cell_angle_gamma   90.00000000
_symmetry_Int_Tables_number   1
_chemical_formula_structural   Cu4H20C37O20
_chemical_formula_sum   'Cu16 H80 C148 O80'
_cell_volume   3856.19060923
_cell_formula_units_Z   4
loop_
 _symmetry_equiv_pos_site_id
 _symmetry_equiv_pos_as_xyz
  1  'x, y, z'
loop_
 _atom_site_type_symbol
 _atom_site_label
 _atom_site_symmetry_multiplicity
 _atom_site_fract_x
 _atom_site_fract_y
 _atom_site_fract_z
 _atom_site_occupancy
  C  C0  1  0.26895767  0.12387953  0.15260571  1
  C  C1  1  0.94248104  0.19020541  0.14769191  1
  H  H2  1  0.43205521  0.10299778  0.17062445  1
  H  H3  1  0.86630870  0.22179291  0.16263840  1
  C  C4  1  0.17978504  0.06500731  0.09847867  1
  O  O5  1  0.54919606  0.16642076  0.22885110  1
  O  O6  1  0.39056855  0.03943909  0.11382843  1
  C  C7  1  0.12313287  0.10881104  0.11404359  1
  C  C8  1  0.90539486  0.13677272  0.09202236  1
  C  C9  1  0.81823525  0.17781492  0.10665594  1
  C  C10  1  0.18217113  0.16524594  0.16755670  1
  C  C11  1  0.30761761  0.18085574  0.21034813  1
  H  H12  1  0.79178646  0.11977771  0.06305348  1
  H  H13  1  0.70871429  0.17494844  0.01690194  1
  C  C14  1  0.51234027  0.19138801  0.03817833  1
  O  O15  1  0.96698082  0.05079278  0.07235038  1
  O  O16  1  0.59415014  0.20394182  0.08253650  1
  O  O17  1  0.14336073  0.21137205  0.22740461  1
  H  H18  1  0.36098537  0.16358850  0.04843579  1
  H  H19  1  0.89075392  0.24149159  0.04957607  1
  C  C20  1  0.31357844  0.22377012  0.00962712  1
  Cu  Cu21  1  0.68290944  0.00040045  0.08432992  1
  H  H22  1  0.96513288  0.22070621  0.39341407  1
  O  O23  1  0.83298909  0.06904025  0.42807950  1
  O  O24  1  0.81934111  0.19580944  0.47946807  1
  H  H25  1  0.68642763  0.12054550  0.37399148  1
  O  O26  1  0.43728263  0.04881600  0.46969300  1
  C  C27  1  0.35613765  0.18183667  0.33384193  1
  C  C28  1  0.02445285  0.17791811  0.45038364  1
  O  O29  1  0.59264372  0.16612637  0.31109581  1
  Cu  Cu30  1  0.87183110  0.18944659  0.26855696  1
  C  C31  1  0.09039119  0.19255377  0.40814976  1
  C  C32  1  0.18756236  0.13822777  0.46137915  1
  C  C33  1  0.42615832  0.11925673  0.43581012  1
  C  C34  1  0.49642353  0.13647450  0.39435107  1
  C  C35  1  0.58484901  0.07711802  0.44808667  1
  C  C36  1  0.30754616  0.17099173  0.37949082  1
  H  H37  1  0.51046710  0.23211766  0.44161638  1
  O  O38  1  0.16889074  0.20841725  0.31449315  1
  Cu  Cu39  1  0.10922709  0.01659100  0.43432649  1
  C  C40  1  0.68888318  0.24150168  0.46786599  1
  H  H41  1  0.14064945  0.12687443  0.49415279  1
  H  H42  1  0.50472853  0.21399380  0.53497740  1
  O  O43  1  0.56085601  0.08160318  0.60097275  1
  C  C44  1  0.02044359  0.18107788  0.57938387  1
  O  O45  1  0.97631233  0.08964247  0.55770280  1
  H  H46  1  0.50503115  0.14072170  0.66022977  1
  C  C47  1  0.53724693  0.22395360  0.69481739  1
  H  H48  1  0.14429380  0.17101483  0.54916429  1
  Cu  Cu49  1  0.26457141  0.04521601  0.56881262  1
  C  C50  1  0.05774518  0.22350648  0.59472448  1
  C  C51  1  0.68342774  0.20664822  0.65421990  1
  C  C52  1  0.65327043  0.16352638  0.63816083  1
  C  C53  1  0.81480933  0.15131570  0.60093977  1
  O  O54  1  0.38525183  0.19708902  0.71820304  1
  C  C55  1  0.77535495  0.10525942  0.58412593  1
  C  C56  1  0.89364101  0.23512544  0.63290140  1
  C  C57  1  0.33181309  0.24264094  0.52600489  1
  H  H58  1  0.12137283  0.22738611  0.50687284  1
  O  O59  1  0.14624967  0.11843333  0.83299064  1
  O  O60  1  0.45884624  0.17641397  0.83750581  1
  O  O61  1  0.11776780  0.23376071  0.78799335  1
  H  H62  1  0.78925705  0.17443919  0.91125973  1
  C  C63  1  0.14590699  0.19364895  0.97883370  1
  H  H64  1  0.19015714  0.06236076  0.88536557  1
  C  C65  1  0.35301504  0.13914361  0.85164446  1
  C  C66  1  0.44963689  0.01284854  0.94655434  1
  C  C67  1  0.86171271  0.12503504  0.95710070  1
  C  C68  1  0.72690615  0.14085661  0.91844413  1
  C  C69  1  0.48642734  0.11969971  0.89433305  1
  C  C70  1  0.37336430  0.07905635  0.90507755  1
  C  C71  1  0.54453687  0.06042007  0.94107619  1
  H  H72  1  0.80883004  0.22644082  0.85633803  1
  H  H73  1  0.31144586  0.18460797  0.95049866  1
  H  H74  1  0.93559812  0.21272380  0.96653848  1
  O  O75  1  0.04797837  0.14456845  0.98663633  1
  C  C76  1  0.76667704  0.08040865  0.96627063  1
  Cu  Cu77  1  0.42215064  0.18999013  0.77622369  1
  H  H78  1  0.87424703  0.06300858  0.99445955  1
  O  O79  1  0.59026322  0.24306513  0.93331554  1
  O  O80  1  0.22161274  0.45206986  0.07262889  1
  O  O81  1  0.29339243  0.34100962  0.18756802  1
  O  O82  1  0.72580451  0.29662410  0.18487966  1
  Cu  Cu83  1  0.01207224  0.31239186  0.23029843  1
  H  H84  1  0.29090475  0.39188722  0.12789168  1
  O  O85  1  0.07597663  0.30292950  0.02598509  1
  H  H86  1  0.89645944  0.27959266  0.10973295  1
  C  C87  1  0.90358942  0.32617023  0.05450577  1
  C  C88  1  0.80731308  0.31150851  0.09606749  1
  C  C89  1  0.58644861  0.33382264  0.12236051  1
  C  C90  1  0.44186700  0.37259053  0.10761814  1
  C  C91  1  0.56126462  0.39191569  0.07019808  1
  C  C92  1  0.77635095  0.36765583  0.04369443  1
  C  C93  1  0.53092020  0.32359368  0.16832908  1
  C  C94  1  0.47441453  0.43613818  0.05629440  1
  H  H95  1  0.28255302  0.26696842  0.06782453  1
  O  O96  1  0.65829674  0.45811911  0.03052670  1
  H  H97  1  0.84949709  0.38543589  0.01269721  1
  C  C98  1  0.13832778  0.25368363  0.03879642  1
  Cu  Cu99  1  0.95206091  0.49723773  0.05518120  1
  C  C100  1  0.53790464  0.31087748  0.29407351  1
  H  H101  1  0.31261258  0.38345217  0.33928877  1
  C  C102  1  0.85574060  0.30220649  0.36131607  1
  C  C103  1  0.65227683  0.37957435  0.39448538  1
  O  O104  1  0.34975615  0.44492842  0.39426110  1
  H  H105  1  0.94979153  0.27129372  0.34798864  1
  O  O106  1  0.77182321  0.44050735  0.43774044  1
  O  O107  1  0.72459551  0.28521861  0.27454783  1
  C  C108  1  0.57520556  0.42483564  0.41099338  1
  C  C109  1  0.88648736  0.35604762  0.41725108  1
  C  C110  1  0.62511672  0.32616360  0.33801595  1
  C  C111  1  0.50091608  0.36436409  0.35690976  1
  C  C112  1  0.99071163  0.31498258  0.40111777  1
  O  O113  1  0.20795904  0.29081724  0.42405938  1
  C  C114  1  0.50881407  0.27389281  0.49581439  1
  H  H115  1  0.01350119  0.37298469  0.44526360  1
  C  C116  1  0.31407555  0.30604543  0.46848136  1
  H  H117  1  0.46819907  0.33563782  0.46362393  1
  H  H118  1  0.07154206  0.31593256  0.48281139  1
  O  O119  1  0.29897997  0.33032232  0.27707727  1
  Cu  Cu120  1  0.02141081  0.48765540  0.41777841  1
  H  H121  1  0.88051302  0.25792981  0.44927278  1
  C  C122  1  0.28841008  0.37885879  0.61655725  1
  H  H123  1  0.93051567  0.28701122  0.53963593  1
  C  C124  1  0.36250179  0.36027633  0.66029560  1
  H  H125  1  0.58357009  0.43776806  0.62899782  1
  C  C126  1  0.69159283  0.30329974  0.52672749  1
  C  C127  1  0.08588668  0.35627372  0.58794148  1
  O  O128  1  0.59839009  0.26192178  0.70941213  1
  H  H129  1  0.55543519  0.30768170  0.55771553  1
  O  O130  1  0.77865775  0.35186090  0.51944506  1
  C  C131  1  0.09234102  0.41556376  0.54092189  1
  C  C132  1  0.29636826  0.43886358  0.56998775  1
  C  C133  1  0.42302393  0.41972602  0.60703417  1
  O  O134  1  0.52779782  0.37842630  0.68635653  1
  C  C135  1  0.97195956  0.37301589  0.54821520  1
  O  O136  1  0.22057209  0.32102141  0.66927410  1
  H  H137  1  0.99176533  0.32302390  0.59860733  1
  Cu  Cu138  1  0.29243094  0.30346987  0.72083380  1
  C  C139  1  0.36151769  0.48331880  0.55524667  1
  H  H140  1  0.95592858  0.26751776  0.64738168  1
  H  H141  1  0.03489597  0.43504439  0.51064345  1
  O  O142  1  0.25056215  0.25389507  0.57271209  1
  O  O143  1  0.61521355  0.49710545  0.57514837  1
  O  O144  1  0.25477353  0.41599964  0.89301060  1
  C  C145  1  0.85024118  0.31444831  0.92244829  1
  C  C146  1  0.04846938  0.34299002  0.89917755  1
  H  H147  1  0.74689440  0.32416880  0.95507119  1
  H  H148  1  0.31847760  0.35082647  0.84230047  1
  C  C149  1  0.77278937  0.27221385  0.90783292  1
  C  C150  1  0.05966816  0.38927731  0.91139727  1
  C  C151  1  0.08668605  0.28694655  0.84230113  1
  C  C152  1  0.17558501  0.32736304  0.86029569  1
  C  C153  1  0.18820257  0.27136413  0.80067128  1
  C  C154  1  0.87270919  0.25940407  0.86721713  1
  Cu  Cu155  1  0.57597705  0.45626227  0.91729106  1
  O  O156  1  0.85041210  0.40750713  0.93468273  1
  O  O157  1  0.33481044  0.30026630  0.77687334  1
  H  H158  1  0.34970576  0.28366030  0.96965619  1
  C  C159  1  0.49250638  0.25450059  0.97838626  1
  H  H160  1  0.71878002  0.26672726  0.99342665  1
  O  O161  1  0.88428209  0.49225422  0.94167413  1
  H  H162  1  0.17982263  0.59225673  0.14328987  1
  C  C163  1  0.45295776  0.65277797  0.14878823  1
  C  C164  1  0.66647452  0.68417139  0.13316095  1
  O  O165  1  0.04333367  0.70269653  0.07533392  1
  O  O166  1  0.24431787  0.53942072  0.08456482  1
  H  H167  1  0.91303618  0.62426594  0.04536024  1
  O  O168  1  0.67438693  0.54640746  0.04193814  1
  O  O169  1  0.08905003  0.63181442  0.20057839  1
  H  H170  1  0.39968014  0.66929029  0.03889996  1
  C  C171  1  0.78452206  0.63397242  0.07648686  1
  C  C172  1  0.54174762  0.60395323  0.09074296  1
  C  C173  1  0.37327355  0.61266342  0.12895109  1
  C  C174  1  0.49223865  0.56153070  0.07071933  1
  C  C175  1  0.83597906  0.67462063  0.09457663  1
  C  C176  1  0.27608875  0.66023086  0.19093013  1
  O  O177  1  0.33336864  0.69499132  0.21616612  1
  C  C178  1  0.20204223  0.69400714  0.03077912  1
  H  H179  1  0.69037126  0.71611686  0.14901071  1
  C  C180  1  0.34575094  0.72862623  0.00237425  1
  H  H181  1  0.01484507  0.67242594  0.01345372  1
  H  H182  1  0.71736603  0.73980125  0.05219523  1
  C  C183  1  0.02301700  0.65890723  0.42682263  1
  O  O184  1  0.38612570  0.67342661  0.29929633  1
  O  O185  1  0.23401826  0.67682831  0.45712075  1
  O  O186  1  0.80301543  0.71967311  0.30934712  1
  H  H187  1  0.32782911  0.61257678  0.34901913  1
  C  C188  1  0.52507079  0.62345730  0.37090358  1
  O  O189  1  0.29415379  0.53979386  0.39486576  1
  C  C190  1  0.68890755  0.66297700  0.36135557  1
  C  C191  1  0.92043598  0.68166437  0.38943654  1
  C  C192  1  0.64422308  0.59922609  0.40489848  1
  C  C193  1  0.88891079  0.61617574  0.43115608  1
  C  C194  1  0.62424287  0.68780975  0.32108797  1
  H  H195  1  0.01979348  0.71530300  0.38055786  1
  O  O196  1  0.72254324  0.53116177  0.43904072  1
  H  H197  1  0.93497328  0.59438614  0.45839127  1
  C  C198  1  0.53675115  0.55334931  0.41351483  1
  Cu  Cu199  1  0.08437439  0.70697083  0.26665909  1
  C  C200  1  0.34774074  0.72056702  0.44707457  1
  H  H201  1  0.55957629  0.71685938  0.42366371  1
  H  H202  1  0.13039658  0.73646788  0.43070594  1
  H  H203  1  0.92403431  0.71577162  0.49652809  1
  Cu  Cu204  1  0.89888861  0.54541203  0.55925761  1
  H  H205  1  0.04601829  0.66214364  0.53612962  1
  O  O206  1  0.46381234  0.69333705  0.72007622  1
  O  O207  1  0.20849462  0.59055099  0.54256706  1
  H  H208  1  0.51668414  0.63880919  0.65656028  1
  C  C209  1  0.38282564  0.60607227  0.57251670  1
  O  O210  1  0.61881514  0.58514786  0.58753918  1
  C  C211  1  0.93827706  0.71333449  0.58300848  1
  C  C212  1  0.68757621  0.72373876  0.51225909  1
  C  C213  1  0.22598113  0.69839148  0.65177925  1
  C  C214  1  0.35109968  0.65871715  0.63781509  1
  C  C215  1  0.27386137  0.64689356  0.59469025  1
  C  C216  1  0.07857544  0.67366839  0.56922114  1
  C  C217  1  0.30974073  0.71712763  0.69532180  1
  O  O218  1  0.18221719  0.50521147  0.53020322  1
  C  C219  1  0.02209052  0.72428036  0.62593596  1
  H  H220  1  0.56151233  0.69186677  0.51704184  1
  O  O221  1  0.73811172  0.73768502  0.55768657  1
  O  O222  1  0.29381017  0.64160972  0.80641286  1
  H  H223  1  0.39158394  0.70195024  0.94125398  1
  C  C224  1  0.77146813  0.58317831  0.94265579  1
  O  O225  1  0.89684500  0.68500997  0.82316176  1
  C  C226  1  0.07096662  0.65197403  0.83174307  1
  H  H227  1  0.24637505  0.56676480  0.85241271  1
  C  C228  1  0.71876410  0.62958883  0.94129782  1
  H  H229  1  0.66238112  0.56475556  0.96905298  1
  Cu  Cu230  1  0.54753649  0.69237003  0.78273365  1
  C  C231  1  0.79474022  0.65067182  0.90216709  1
  C  C232  1  0.97322786  0.62639997  0.87101872  1
  C  C233  1  0.09800070  0.58407484  0.87657879  1
  C  C234  1  0.05550692  0.51764284  0.91878280  1
  C  C235  1  0.98020305  0.56295633  0.91379292  1
  O  O236  1  0.58654474  0.65166468  0.97429610  1
  H  H237  1  0.75496496  0.68723019  0.89795019  1
  C  C238  1  0.54770314  0.70376433  0.97106720  1
  H  H239  1  0.78855733  0.71949024  0.96363582  1
  H  H240  1  0.86985706  0.74215728  0.85231909  1
  O  O241  1  0.31838591  0.50400650  0.90089171  1
  O  O242  1  0.21516019  0.82987541  0.19835490  1
  O  O243  1  0.80494436  0.78527183  0.19601202  1
  O  O244  1  0.60837123  0.80397285  0.02666690  1
  H  H245  1  0.70950256  0.77625343  0.11181827  1
  H  H246  1  0.29132861  0.88455079  0.15248784  1
  C  C247  1  0.75712859  0.82525679  0.05930560  1
  C  C248  1  0.06558906  0.89133900  0.08660617  1
  O  O249  1  0.40207288  0.95177486  0.10052857  1
  C  C250  1  0.80303638  0.80781597  0.10225163  1
  C  C251  1  0.97287572  0.83116898  0.13362234  1
  C  C252  1  0.12899532  0.87147827  0.12693923  1
  C  C253  1  0.16705253  0.93606325  0.07762209  1
  C  C254  1  0.86879131  0.86880413  0.05686604  1
  C  C255  1  0.98847549  0.81311787  0.17699872  1
  H  H256  1  0.83745815  0.88850667  0.02768139  1
  O  O257  1  0.99430438  0.96056186  0.05474067  1
  Cu  Cu258  1  0.53421082  0.80672749  0.23866097  1
  C  C259  1  0.50913059  0.75664506  0.03653327  1
  H  H260  1  0.33455525  0.76419920  0.06461115  1
  O  O261  1  0.59034638  0.79629532  0.42420496  1
  O  O262  1  0.34917274  0.89379473  0.29100604  1
  O  O263  1  0.38501262  0.96299885  0.43655226  1
  C  C264  1  0.61030413  0.95540681  0.41108358  1
  H  H265  1  0.37088101  0.88384807  0.43521764  1
  H  H266  1  0.04953101  0.93837901  0.34398308  1
  O  O267  1  0.80942457  0.98619150  0.39984139  1
  C  C268  1  0.24070299  0.86180517  0.30653941  1
  C  C269  1  0.67415809  0.83539368  0.39982721  1
  H  H270  1  0.96650119  0.79707041  0.35652852  1
  C  C271  1  0.00394055  0.86746918  0.34436436  1
  C  C272  1  0.92757288  0.90945992  0.35833449  1
  C  C273  1  0.70176217  0.91356187  0.39256171  1
  C  C274  1  0.55517580  0.87636699  0.41126222  1
  C  C275  1  0.88667160  0.82952350  0.36574991  1
  C  C276  1  0.50318700  0.79820015  0.46719586  1
  O  O277  1  0.26725649  0.82262906  0.28746891  1
  H  H278  1  0.66829689  0.82084730  0.48726227  1
  H  H279  1  0.96835642  0.77789200  0.48301248  1
  C  C280  1  0.21648434  0.78211391  0.49867592  1
  C  C281  1  0.46969712  0.75005428  0.48405260  1
  C  C282  1  0.87900574  0.84643937  0.67010762  1
  O  O283  1  0.61394542  0.82498959  0.66799668  1
  H  H284  1  0.32785609  0.91025911  0.67242286  1
  C  C285  1  0.22383336  0.90408440  0.64141783  1
  O  O286  1  0.02369858  0.85089270  0.70579648  1
  Cu  Cu287  1  0.40155366  0.81740665  0.72004830  1
  C  C288  1  0.99913310  0.87064583  0.63220007  1
  C  C289  1  0.16881708  0.92399929  0.56400413  1
  H  H290  1  0.22308590  0.94592424  0.53805097  1
  C  C291  1  0.87254935  0.86294548  0.59183680  1
  C  C292  1  0.30383344  0.92981814  0.60501376  1
  H  H293  1  0.69212465  0.83642657  0.58669270  1
  C  C294  1  0.51320947  0.96914202  0.61223640  1
  C  C295  1  0.96520160  0.88817993  0.55499413  1
  O  O296  1  0.61906236  0.98022042  0.64662205  1
  H  H297  1  0.20608384  0.79158465  0.53406438  1
  O  O298  1  0.19246387  0.75569320  0.70384519  1
  H  H299  1  0.91315301  0.75298070  0.64291905  1
  O  O300  1  0.83380053  0.88241589  0.51383225  1
  O  O301  1  0.53741733  0.99491775  0.57716694  1
  H  H302  1  0.73931577  0.91162919  0.50932922  1
  Cu  Cu303  1  0.89158917  0.95042448  0.94428495  1
  C  C304  1  0.56803980  0.80057460  0.84557423  1
  H  H305  1  0.83982881  0.83246236  0.96287077  1
  H  H306  1  0.22745655  0.85723122  0.85052124  1
  C  C307  1  0.88372210  0.78467316  0.90987937  1
  C  C308  1  0.40085942  0.88718671  0.93244734  1
  C  C309  1  0.47520374  0.78735765  0.80229240  1
  O  O310  1  0.17666628  0.90831157  0.91742551  1
  O  O311  1  0.58386404  0.90366978  0.96010500  1
  O  O312  1  0.31357525  0.81227263  0.77667211  1
  C  C313  1  0.76957840  0.82279653  0.92935592  1
  C  C314  1  0.54427425  0.84840317  0.90659685  1
  C  C315  1  0.42450109  0.83741596  0.86560118  1
  O  O316  1  0.61890307  0.75335057  0.78766189  1
  H  H317  1  0.35126077  0.79560814  0.97081452  1
  C  C318  1  0.78090363  0.77405346  0.86749443  1
  C  C319  1  0.18241403  0.76493270  0.97537985  1
  O  O320  1  0.09385417  0.75621979  0.93049001  1
  O  O321  1  0.62392054  0.99206213  0.97131585  1
  O  O322  1  0.19282232  0.99860686  0.92997945  1
  H  H323  1  0.96371422  0.77420086  0.99507907  1
