# generated using pymatgen
data_Zn4H26C44O13
_symmetry_space_group_name_H-M   'P 1'
_cell_length_a   15.53701855
_cell_length_b   24.28741146
_cell_length_c   32.71148623
_cell_angle_alpha   90.00000000
_cell_angle_beta   90.00000000
_cell_angle_gamma   90.00000000
_symmetry_Int_Tables_number   1
_chemical_formula_structural   Zn4H26C44O13
_chemical_formula_sum   'Zn32 H208 C352 O104'
_cell_volume   12343.80894645
_cell_formula_units_Z   8
loop_
 _symmetry_equiv_pos_site_id
 _symmetry_equiv_pos_as_xyz
  1  'x, y, z'
loop_
 _atom_site_type_symbol
 _atom_site_label
 _atom_site_symmetry_multiplicity
 _atom_site_fract_x
 _atom_site_fract_y
 _atom_site_fract_z
 _atom_site_occupancy
  O  O0  1  0.12530954  0.38412308  0.11092943  1
  O  O1  1  0.20160115  0.12492002  0.17640982  1
  O  O2  1  0.06996482  0.10941409  0.15280751  1
  Zn  Zn3  1  0.19831863  0.20914255  0.17096864  1
  Zn  Zn4  1  0.02612278  0.18685195  0.12517559  1
  H  H5  1  0.09890015  0.48235914  0.11815622  1
  O  O6  1  0.31518520  0.23603467  0.13174642  1
  O  O7  1  0.27337491  0.23887933  0.07015524  1
  C  C8  1  0.40155218  0.31155338  0.04767825  1
  C  C9  1  0.19210534  0.29753237  0.23536589  1
  H  H10  1  0.34199628  0.30299793  0.02973034  1
  C  C11  1  0.12026952  0.38856834  0.07276322  1
  C  C12  1  0.25759771  0.01928699  0.14778226  1
  Zn  Zn13  1  0.13722473  0.25826157  0.07267882  1
  C  C14  1  0.14771381  0.09477665  0.15661224  1
  O  O15  1  0.20726060  0.24735695  0.22729253  1
  H  H16  1  0.04727229  0.03007516  0.11017999  1
  O  O17  1  0.11624807  0.24607125  0.13362495  1
  C  C18  1  0.32324506  0.25580469  0.09816025  1
  C  C19  1  0.40336924  0.28845940  0.08760017  1
  C  C20  1  0.11866180  0.44535329  0.05628353  1
  C  C21  1  0.17468797  0.04114972  0.13901636  1
  C  C22  1  0.11079192  0.01437095  0.11566021  1
  H  H23  1  0.30125046  0.03772844  0.17078857  1
  C  C24  1  0.11233194  0.48899472  0.08519602  1
  O  O25  1  0.16239636  0.32989660  0.21022513  1
  O  O26  1  0.11816318  0.34722592  0.05106008  1
  C  C27  1  0.11489611  0.45766044  0.01413020  1
  Zn  Zn28  1  0.08895067  0.31849165  0.15138993  1
  C  C29  1  0.47813968  0.29525560  0.11103718  1
  H  H30  1  0.48178651  0.27284364  0.14090829  1
  C  C31  1  0.46697721  0.34330859  0.03078156  1
  O  O32  1  0.06568116  0.22359750  0.02745709  1
  C  C33  1  0.00818825  0.18827886  0.03116718  1
  H  H34  1  0.46202523  0.36529822  0.00209074  1
  C  C35  1  0.21782171  0.35443622  0.35704731  1
  H  H36  1  0.24753894  0.23607184  0.30097189  1
  C  C37  1  0.17389697  0.39492012  0.47267372  1
  H  H38  1  0.35480899  0.45550101  0.37324253  1
  C  C39  1  0.17039632  0.37016138  0.28708687  1
  H  H40  1  0.29652407  0.36932421  0.41028691  1
  H  H41  1  0.28055072  0.27480786  0.36922916  1
  C  C42  1  0.36578855  0.20604658  0.40195813  1
  O  O43  1  0.42811058  0.28767850  0.37404823  1
  C  C44  1  0.22217846  0.44419939  0.39403153  1
  C  C45  1  0.16364663  0.36671587  0.43401327  1
  C  C46  1  0.17429657  0.38811641  0.32781026  1
  H  H47  1  0.28392410  0.07660091  0.41220436  1
  O  O48  1  0.45787698  0.21162884  0.34241534  1
  C  C49  1  0.24971325  0.14958518  0.45041951  1
  H  H50  1  0.33220702  0.28257697  0.43753051  1
  C  C51  1  0.09214880  0.15397157  0.46056047  1
  C  C52  1  0.13886841  0.46680895  0.39934184  1
  C  C53  1  0.11352761  0.31864707  0.43086468  1
  C  C54  1  0.17532832  0.12443316  0.47509941  1
  C  C55  1  0.14265726  0.05372187  0.42110834  1
  C  C56  1  0.26093552  0.20800610  0.45601367  1
  H  H57  1  0.14289551  0.18422978  0.40265601  1
  C  C58  1  0.32343800  0.23680814  0.43294292  1
  C  C59  1  0.35563849  0.14811447  0.39613298  1
  C  C60  1  0.22973291  0.38210016  0.40018560  1
  H  H61  1  0.10797681  0.29728570  0.40158020  1
  H  H62  1  0.15315391  0.08973207  0.40037839  1
  C  C63  1  0.41783286  0.23735156  0.37149829  1
  C  C64  1  0.08802688  0.17893170  0.42075529  1
  H  H65  1  0.38985731  0.12632859  0.37213357  1
  H  H66  1  0.14890044  0.42703624  0.33690849  1
  C  C67  1  0.29978274  0.11935643  0.42137336  1
  C  C68  1  0.23365475  0.28022321  0.30866057  1
  C  C69  1  0.24857438  0.30194273  0.34690955  1
  C  C70  1  0.20059355  0.31575458  0.27800894  1
  H  H71  1  0.39400626  0.11894612  0.49608982  1
  H  H72  1  0.21664816  0.22618594  0.47699827  1
  C  C73  1  0.15312012  0.06246229  0.46352791  1
  H  H74  1  0.35651554  0.35338016  0.47559006  1
  H  H75  1  0.08630663  0.43942715  0.41067785  1
  H  H76  1  0.21818170  0.42998710  0.47607834  1
  C  C77  1  0.13673254  0.01849674  0.49131706  1
  C  C78  1  0.00962038  0.19911767  0.40665987  1
  C  C79  1  0.05706021  0.30661222  0.46348199  1
  H  H80  1  0.29543964  0.04336683  0.49276283  1
  H  H81  1  0.14580948  0.39620985  0.26464081  1
  C  C82  1  0.29061855  0.47445221  0.37587912  1
  H  H83  1  0.01059958  0.27278712  0.45722475  1
  C  C84  1  0.06615382  0.33699478  0.49989544  1
  C  C85  1  0.02009753  0.15529102  0.48777479  1
  C  C86  1  0.12930587  0.00100077  0.40697345  1
  C  C87  1  0.43439676  0.31181039  0.58367517  1
  C  C88  1  0.47894436  0.15983269  0.59112165  1
  H  H89  1  0.16860459  0.42291160  0.65228669  1
  H  H90  1  0.27044187  0.06057259  0.57632203  1
  H  H91  1  0.22297811  0.33566746  0.60205285  1
  C  C92  1  0.31403074  0.34493998  0.53744585  1
  H  H93  1  0.27704954  0.21001787  0.71570622  1
  C  C94  1  0.11949401  0.21673117  0.62455752  1
  C  C95  1  0.29229640  0.25263470  0.70618595  1
  H  H96  1  0.34898773  0.22287247  0.53004807  1
  H  H97  1  0.41307236  0.41143417  0.58786795  1
  C  C98  1  0.33149251  0.02191303  0.51693771  1
  O  O99  1  0.07553673  0.18728430  0.64807721  1
  C  C100  1  0.47551393  0.14108617  0.55115420  1
  H  H101  1  0.12669221  0.40407274  0.53492355  1
  H  H102  1  0.16337660  0.10798174  0.62447700  1
  H  H103  1  0.21966818  0.26612474  0.57000024  1
  C  C104  1  0.19992695  0.13266637  0.60204745  1
  C  C105  1  0.18567210  0.18948485  0.59875875  1
  C  C106  1  0.36514227  0.49705736  0.59961852  1
  C  C107  1  0.28750537  0.26890499  0.66541882  1
  H  H108  1  0.24637112  0.35702467  0.53327371  1
  C  C109  1  0.34177358  0.36101077  0.68325079  1
  C  C110  1  0.26324388  0.10631274  0.57893128  1
  C  C111  1  0.28478417  0.34866902  0.61215061  1
  C  C112  1  0.28875519  0.41406733  0.61872186  1
  H  H113  1  0.36213868  0.40182667  0.67187536  1
  C  C114  1  0.23431829  0.22158315  0.57189155  1
  C  C115  1  0.29863464  0.32507414  0.65571877  1
  C  C116  1  0.30054038  0.19865309  0.54888204  1
  H  H117  1  0.26646584  0.23945653  0.64123592  1
  C  C118  1  0.43593075  0.02753349  0.57348620  1
  C  C119  1  0.31624486  0.14008206  0.55255973  1
  C  C120  1  0.39532903  0.11410555  0.53031626  1
  C  C121  1  0.34748908  0.34325782  0.72374504  1
  C  C122  1  0.34705159  0.33161301  0.57754126  1
  O  O123  1  0.10992309  0.26697671  0.61949814  1
  H  H124  1  0.19041435  0.12689947  0.50939502  1
  C  C125  1  0.37269900  0.34287890  0.50638544  1
  C  C126  1  0.22334957  0.44335882  0.63989432  1
  C  C127  1  0.39142113  0.05318547  0.54037776  1
  C  C128  1  0.36122774  0.43945484  0.60025447  1
  H  H129  1  0.41791995  0.15503616  0.60880318  1
  H  H130  1  0.45481681  0.30588420  0.61561699  1
  C  C131  1  0.31765935  0.29127459  0.73601647  1
  C  C132  1  0.48939567  0.31026019  0.54985600  1
  H  H133  1  0.13746972  0.02392898  0.52456937  1
  C  C134  1  0.00111239  0.31890779  0.53129962  1
  C  C135  1  0.12124986  0.38254690  0.50559492  1
  C  C136  1  0.45977511  0.32734283  0.51122515  1
  H  H137  1  0.48332312  0.05320407  0.59111056  1
  H  H138  1  0.02764128  0.13660352  0.51804578  1
  C  C139  1  0.23886190  0.49798514  0.64569667  1
  H  H140  1  0.37102932  0.37352826  0.74621299  1
  Zn  Zn141  1  0.25952535  0.21913283  0.85358083  1
  Zn  Zn142  1  0.34216667  0.25177262  0.94933978  1
  O  O143  1  0.25479563  0.12642138  0.86502304  1
  C  C144  1  0.32348156  0.45564458  0.97857489  1
  C  C145  1  0.29372850  0.03486784  0.87741104  1
  C  C146  1  0.31827491  0.27854868  0.78129185  1
  O  O147  1  0.43828898  0.35457266  0.91651159  1
  Zn  Zn148  1  0.45405986  0.18036556  0.89704194  1
  O  O149  1  0.20142902  0.27188683  0.94660611  1
  O  O150  1  0.14962973  0.23896203  0.88873947  1
  O  O151  1  0.29104356  0.23266661  0.79183746  1
  C  C152  1  0.21136552  0.01413593  0.86850420  1
  C  C153  1  0.44990358  0.46298725  0.93163154  1
  C  C154  1  0.38673730  0.37172670  0.94442736  1
  H  H155  1  0.16035069  0.04082647  0.85518648  1
  C  C156  1  0.06516145  0.33223250  0.96924074  1
  C  C157  1  0.31440392  0.09397211  0.87156099  1
  C  C158  1  0.06666980  0.30115059  0.93324298  1
  C  C159  1  0.14363986  0.26755930  0.92080209  1
  H  H160  1  0.12237707  0.33224350  0.98698575  1
  O  O161  1  0.44947623  0.22699070  0.98694784  1
  O  O162  1  0.33459790  0.33978880  0.96250781  1
  O  O163  1  0.36156870  0.23252666  0.89152526  1
  C  C164  1  0.49950762  0.18607479  0.98575742  1
  Zn  Zn165  1  0.40297707  0.29987030  0.86801941  1
  O  O166  1  0.39245053  0.10844696  0.87835208  1
  C  C167  1  0.38306210  0.43172945  0.95171454  1
  O  O168  1  0.34811250  0.31254402  0.80641725  1
  H  H169  1  0.42992559  0.01966826  0.89065307  1
  H  H170  1  0.49646373  0.44723989  0.90940235  1
  C  C171  1  0.36585876  0.00183774  0.88965950  1
  H  H172  1  0.27995043  0.43201057  0.99661077  1
  O  O173  1  0.49483362  0.15209543  0.95777489  1
  H  H174  1  0.00536779  0.23740681  0.95571838  1
  H  H175  1  0.10761390  0.42142601  0.99225841  1
  C  C176  1  0.11809088  0.54340539  0.07305788  1
  C  C177  1  0.09427815  0.82476116  0.07308100  1
  C  C178  1  0.06680529  0.64917286  0.03652420  1
  H  H179  1  0.28175878  0.78702283  0.04936317  1
  C  C180  1  0.06708394  0.67219637  0.07614132  1
  H  H181  1  0.12277153  0.57579775  0.09872044  1
  H  H182  1  0.37220793  0.63797674  0.11055111  1
  H  H183  1  0.33694619  0.94205776  0.14665213  1
  H  H184  1  0.27125669  0.53630522  0.00213881  1
  H  H185  1  0.27706639  0.57848327  0.07033670  1
  H  H186  1  0.30006738  0.85938319  0.09171634  1
  H  H187  1  0.13073440  0.92237088  0.16244299  1
  H  H188  1  0.08672143  0.88549890  0.23033242  1
  H  H189  1  0.17795075  0.72909235  0.00961538  1
  O  O190  1  0.42729498  0.71736416  0.13680760  1
  C  C191  1  0.14572205  0.61695962  0.01912625  1
  H  H192  1  0.12750687  0.67018187  0.09378795  1
  O  O193  1  0.41436374  0.79681963  0.10618193  1
  C  C194  1  0.04458558  0.81393356  0.03885482  1
  C  C195  1  0.21922023  0.65136129  0.03964589  1
  C  C196  1  0.22372297  0.70827598  0.03104020  1
  C  C197  1  0.27667679  0.62434744  0.06548989  1
  C  C198  1  0.39694565  0.74636615  0.10816461  1
  C  C199  1  0.33401957  0.71590395  0.08117014  1
  C  C200  1  0.27892496  0.74256855  0.05371198  1
  C  C201  1  0.33089503  0.65854464  0.08797655  1
  C  C202  1  0.19851906  0.87341687  0.02915994  1
  C  C203  1  0.12530148  0.55624523  0.03009291  1
  C  C204  1  0.13321789  0.86234793  0.21004358  1
  C  C205  1  0.20880049  0.85128326  0.14399512  1
  H  H206  1  0.09521292  0.93699688  0.07898144  1
  C  C207  1  0.23202438  0.87544942  0.10127288  1
  H  H208  1  0.26224882  0.89658786  0.02720631  1
  C  C209  1  0.22370075  0.77964498  0.19623391  1
  C  C210  1  0.21631136  0.93954517  0.11074593  1
  H  H211  1  0.28161835  0.77468737  0.13535593  1
  C  C212  1  0.24080345  0.79919056  0.15630637  1
  C  C213  1  0.15717712  0.88249936  0.17119601  1
  H  H214  1  0.25019390  0.74035599  0.20628670  1
  C  C215  1  0.17028014  0.85652975  0.06821462  1
  H  H216  1  0.40521505  0.89781308  0.01091310  1
  C  C217  1  0.16793731  0.81028036  0.22169975  1
  C  C218  1  0.13614607  0.96322421  0.09836542  1
  H  H219  1  0.07401471  0.80782708  0.10279448  1
  C  C220  1  0.28217002  0.96630535  0.13507875  1
  C  C221  1  0.11392028  0.51229303  0.00195454  1
  Zn  Zn222  1  0.12674237  0.76909307  0.43402868  1
  O  O223  1  0.23221207  0.63841430  0.34133501  1
  C  C224  1  0.11117688  0.89585051  0.41966432  1
  O  O225  1  0.12024973  0.74887972  0.37610912  1
  C  C226  1  0.12090643  0.95444059  0.43447135  1
  O  O227  1  0.26880693  0.77033702  0.43298622  1
  H  H228  1  0.33350218  0.82387656  0.47726105  1
  O  O229  1  0.18526917  0.75111621  0.27871818  1
  O  O230  1  0.02419473  0.73579798  0.47209860  1
  C  C231  1  0.47044188  0.85154617  0.48352402  1
  C  C232  1  0.12335519  0.51893708  0.38186969  1
  O  O233  1  0.09907551  0.85748515  0.44374631  1
  C  C234  1  0.17187366  0.60649755  0.35252998  1
  C  C235  1  0.14708891  0.79285530  0.26390913  1
  O  O236  1  0.09151470  0.81601090  0.28585954  1
  C  C237  1  0.32989081  0.77823702  0.40870097  1
  C  C238  1  0.19370665  0.54837448  0.36480606  1
  H  H239  1  0.32745875  0.55540203  0.34727397  1
  Zn  Zn240  1  0.21656797  0.72655151  0.33943507  1
  H  H241  1  0.11749537  0.99860346  0.37449400  1
  C  C242  1  0.39988709  0.82655963  0.46447747  1
  O  O243  1  0.32874282  0.75796291  0.37407830  1
  H  H244  1  0.49625628  0.79002457  0.37079946  1
  C  C245  1  0.48449011  0.81053448  0.40058142  1
  C  C246  1  0.40528862  0.80825725  0.42362879  1
  H  H247  1  0.06480580  0.54307372  0.38791762  1
  O  O248  1  0.09513905  0.61910420  0.35155356  1
  C  C249  1  0.12034980  0.96316658  0.47637508  1
  Zn  Zn250  1  0.06265601  0.81207945  0.34927263  1
  O  O251  1  0.11138712  0.88568330  0.38168115  1
  C  C252  1  0.27676394  0.52805118  0.36009518  1
  Zn  Zn253  1  0.03858175  0.68881075  0.38231390  1
  H  H254  1  0.49229545  0.71883325  0.44633649  1
  H  H255  1  0.10414260  0.93052991  0.49778870  1
  O  O256  1  0.45473996  0.72236788  0.51840178  1
  C  C257  1  0.36520926  0.94213273  0.55818558  1
  Zn  Zn258  1  0.33768446  0.75758451  0.55414848  1
  O  O259  1  0.19425901  0.75611755  0.55024800  1
  C  C260  1  0.41569221  0.97292709  0.58448551  1
  H  H261  1  0.19715733  0.52026955  0.66578174  1
  O  O262  1  0.14101216  0.73238286  0.61099745  1
  O  O263  1  0.40128880  0.60280685  0.61541336  1
  C  C264  1  0.06740551  0.79881601  0.57067024  1
  C  C265  1  0.33422951  0.58488759  0.63213307  1
  O  O266  1  0.24222105  0.73480621  0.70799720  1
  C  C267  1  0.32288745  0.96529890  0.52434612  1
  C  C268  1  0.30774332  0.52542706  0.62702839  1
  Zn  Zn269  1  0.38241317  0.80055743  0.64337953  1
  H  H270  1  0.32118580  0.88242647  0.74201486  1
  C  C271  1  0.14036684  0.76007648  0.57840470  1
  Zn  Zn272  1  0.45999222  0.67921523  0.61131351  1
  C  C273  1  0.06429183  0.82950941  0.53383746  1
  O  O274  1  0.28637806  0.61536755  0.65211995  1
  O  O275  1  0.39987214  0.86771962  0.59882073  1
  Zn  Zn276  1  0.25442423  0.70483309  0.64068710  1
  O  O277  1  0.29009362  0.81627010  0.68976157  1
  H  H278  1  0.44985006  0.95000236  0.60889582  1
  H  H279  1  0.12047024  0.82760782  0.51324766  1
  O  O280  1  0.36044011  0.73054306  0.61019651  1
  H  H281  1  0.28114996  0.94238201  0.50447775  1
  C  C282  1  0.27201631  0.78121848  0.71760902  1
  O  O283  1  0.31546991  0.84876403  0.54807527  1
  C  C284  1  0.35810602  0.88210917  0.56897167  1
  H  H285  1  0.41921417  0.52288281  0.58578905  1
  H  H286  1  0.47047640  0.87041621  0.51556316  1
  C  C287  1  0.20040623  0.95724954  0.87230961  1
  H  H288  1  0.14018398  0.93302771  0.86438977  1
  H  H289  1  0.16103129  0.87239821  0.96389909  1
  C  C290  1  0.35266868  0.94487545  0.89439087  1
  C  C291  1  0.29846144  0.63011205  0.94611279  1
  O  O292  1  0.08268872  0.74362553  0.87644481  1
  H  H293  1  0.12270550  0.58749431  0.89050042  1
  C  C294  1  0.27219535  0.79977032  0.76015298  1
  C  C295  1  0.43960531  0.78634214  0.94599153  1
  H  H296  1  0.00727643  0.64222797  0.97783174  1
  C  C297  1  0.24660241  0.76493255  0.79215988  1
  H  H298  1  0.19199421  0.85199053  0.89508567  1
  H  H299  1  0.22720223  0.72328762  0.78417152  1
  C  C300  1  0.44895815  0.65909960  0.90325388  1
  C  C301  1  0.27312940  0.83627127  0.84248965  1
  C  C302  1  0.26096010  0.86024559  0.88672498  1
  C  C303  1  0.30249788  0.87154499  0.80972388  1
  O  O304  1  0.03958895  0.65877407  0.85898478  1
  C  C305  1  0.30021774  0.85518753  0.76781194  1
  C  C306  1  0.32865823  0.87983962  0.95392134  1
  C  C307  1  0.28628858  0.68737497  0.94734272  1
  C  C308  1  0.23455771  0.59274420  0.93125912  1
  C  C309  1  0.08697196  0.69184683  0.88024669  1
  C  C310  1  0.15566359  0.67143992  0.90661724  1
  C  C311  1  0.21672777  0.70844943  0.92427764  1
  C  C312  1  0.16707197  0.61355572  0.90810190  1
  H  H313  1  0.24530832  0.54958007  0.93404338  1
  C  C314  1  0.24884743  0.78153737  0.83286539  1
  H  H315  1  0.40566910  0.91609821  0.90426601  1
  C  C316  1  0.32295663  0.83987660  0.92169414  1
  C  C317  1  0.01049582  0.82126987  0.96326002  1
  H  H318  1  0.28324316  0.91321173  0.95667893  1
  C  C319  1  0.26784609  0.92420981  0.88524079  1
  H  H320  1  0.20462304  0.75249302  0.91834581  1
  H  H321  1  0.10281071  0.52047269  0.96908295  1
  H  H322  1  0.33326931  0.71572972  0.96302526  1
  H  H323  1  0.22698272  0.75027510  0.85808829  1
  C  C324  1  0.37623691  0.79283649  0.91547327  1
  C  C325  1  0.44870105  0.51912767  0.93844039  1
  H  H326  1  0.32875868  0.91199346  0.81928278  1
  C  C327  1  0.38164609  0.54247490  0.96222227  1
  C  C328  1  0.38175764  0.60615382  0.96560616  1
  H  H329  1  0.38773267  0.66118469  0.88722164  1
  H  H330  1  0.38186992  0.77081412  0.88602233  1
  C  C331  1  0.45862772  0.63414362  0.94214958  1
  H  H332  1  0.48763878  0.54924473  0.92006281  1
  H  H333  1  0.14496384  0.62463455  0.98536761  1
  C  C334  1  0.31902968  0.51338806  0.98386932  1
  C  C335  1  0.45035365  0.82658105  0.97677110  1
  C  C336  1  0.39454255  0.87265074  0.98296002  1
  H  H337  1  0.48923784  0.75354897  0.93954786  1
  O  O338  1  0.02924011  0.84502155  0.92989253  1
  C  C339  1  0.14243456  0.86285731  0.99538747  1
  C  C340  1  0.06681853  0.83280568  0.99924889  1
  H  H341  1  0.38032301  0.61778802  0.99774794  1
  H  H342  1  0.60349238  0.08935116  0.10432873  1
  C  C343  1  0.63758698  0.14258237  0.00763259  1
  H  H344  1  0.72678870  0.42830129  0.08939853  1
  C  C345  1  0.61119790  0.44196898  0.04023187  1
  C  C346  1  0.70173437  0.13144141  0.03682096  1
  H  H347  1  0.81994569  0.14666013  0.10210503  1
  H  H348  1  0.67153440  0.07792449  0.17503592  1
  C  C349  1  0.90774838  0.28580313  0.12227390  1
  H  H350  1  0.88595393  0.10849460  0.03091923  1
  H  H351  1  0.84064348  0.38189788  0.00312491  1
  C  C352  1  0.73042979  0.15709652  0.15259200  1
  H  H353  1  0.75034174  0.09778249  0.02983320  1
  C  C354  1  0.56183302  0.46306867  0.07366706  1
  C  C355  1  0.61765047  0.37790313  0.03370193  1
  C  C356  1  0.75171528  0.38790596  0.08149175  1
  H  H357  1  0.80806178  0.23341443  0.06665415  1
  C  C358  1  0.80753190  0.03800460  0.12930489  1
  O  O359  1  0.94958429  0.31773042  0.14588891  1
  C  C360  1  0.69420517  0.35437991  0.05722604  1
  O  O361  1  0.91292808  0.23415407  0.12370712  1
  C  C362  1  0.74153036  0.07270256  0.11424721  1
  C  C363  1  0.71685346  0.29819895  0.05149441  1
  H  H364  1  0.87337268  0.05485515  0.13719310  1
  H  H365  1  0.77629087  0.24293252  0.14272627  1
  C  C366  1  0.75474889  0.21106408  0.16505134  1
  C  C367  1  0.68134023  0.13610996  0.22297136  1
  C  C368  1  0.65447382  0.05657030  0.10812721  1
  C  C369  1  0.82204180  0.36894664  0.10360431  1
  C  C370  1  0.79206774  0.27844718  0.07088785  1
  C  C371  1  0.74816889  0.22723456  0.20729597  1
  C  C372  1  0.83882250  0.31366667  0.09656260  1
  C  C373  1  0.69396589  0.16076822  0.07447397  1
  C  C374  1  0.54983400  0.32392012  0.09661497  1
  C  C375  1  0.69111481  0.12108643  0.18222203  1
  C  C376  1  0.75192308  0.13717071  0.10909948  1
  H  H377  1  0.86321470  0.48265982  0.02169538  1
  C  C378  1  0.71106683  0.18866813  0.23416291  1
  H  H379  1  0.77419371  0.26712942  0.21995557  1
  H  H380  1  0.85387320  0.39521389  0.12624686  1
  C  C381  1  0.62760969  0.19910997  0.08322572  1
  H  H382  1  0.60721283  0.33336515  0.11541071  1
  H  H383  1  0.67953323  0.26936145  0.03195592  1
  C  C384  1  0.63669488  0.00125716  0.11482521  1
  C  C385  1  0.54218479  0.34540629  0.05497921  1
  H  H386  1  0.62563054  0.21394086  0.11522010  1
  C  C387  1  0.57328067  0.21545404  0.05098339  1
  C  C388  1  0.88695780  0.13168590  0.00198192  1
  H  H389  1  0.65542825  0.11068586  0.24689740  1
  C  C390  1  0.65901206  0.47984872  0.01495884  1
  H  H391  1  0.98757149  0.37102591  0.01415670  1
  C  C392  1  0.57365750  0.18271570  0.01539257  1
  O  O393  1  0.99841207  0.16012007  0.06418323  1
  H  H394  1  0.52177361  0.43530926  0.09218142  1
  H  H395  1  0.52272071  0.24902467  0.05355947  1
  H  H396  1  0.62424628  0.36563507  0.00134513  1
  H  H397  1  0.52746886  0.03109534  0.39990816  1
  H  H398  1  0.88618090  0.18387525  0.48951295  1
  Zn  Zn399  1  0.55727650  0.32410223  0.38197250  1
  C  C400  1  0.69190589  0.47246663  0.36359253  1
  C  C401  1  0.93888728  0.20299918  0.43377696  1
  C  C402  1  0.66642494  0.04472130  0.47981885  1
  O  O403  1  0.72648382  0.25399454  0.29079522  1
  H  H404  1  0.56671453  0.48456449  0.38913318  1
  H  H405  1  0.82365459  0.46464360  0.34445134  1
  C  C406  1  0.56118369  0.01857126  0.42792341  1
  O  O407  1  0.59204484  0.40017119  0.35910371  1
  O  O408  1  0.72194080  0.38174626  0.33764233  1
  C  C409  1  0.61633723  0.05831225  0.44468419  1
  O  O410  1  0.66466503  0.17496310  0.30135869  1
  O  O411  1  0.80002956  0.22962248  0.44378800  1
  Zn  Zn412  1  0.65615796  0.24304489  0.43727258  1
  C  C413  1  0.61067304  0.11564704  0.42776137  1
  O  O414  1  0.85710046  0.25588811  0.38419988  1
  C  C415  1  0.86072619  0.23180157  0.41965456  1
  C  C416  1  0.66869370  0.41397776  0.35127512  1
  C  C417  1  0.70110552  0.20756561  0.27785234  1
  O  O418  1  0.64168533  0.26395152  0.38040776  1
  Zn  Zn419  1  0.59043245  0.19333785  0.35680999  1
  O  O420  1  0.57031835  0.12166524  0.39554554  1
  C  C421  1  0.94668746  0.17974625  0.47320746  1
  O  O422  1  0.59082729  0.29877069  0.48063124  1
  Zn  Zn423  1  0.74617420  0.27915259  0.34971606  1
  O  O424  1  0.64862510  0.15436614  0.44294913  1
  H  H425  1  0.54746816  0.13314651  0.49367956  1
  C  C426  1  0.51993946  0.32122152  0.47534246  1
  O  O427  1  0.50350373  0.34503732  0.44233190  1
  C  C428  1  0.77590650  0.49211546  0.35721393  1
  H  H429  1  0.99924844  0.21656735  0.37607116  1
  H  H430  1  0.71092049  0.07553681  0.49122671  1
  C  C431  1  0.85175864  0.21091692  0.73531353  1
  O  O432  1  0.88851730  0.11897953  0.61588514  1
  H  H433  1  0.71997193  0.44652612  0.66248777  1
  O  O434  1  0.88010466  0.15150771  0.55502642  1
  C  C435  1  0.76781259  0.47530308  0.64690680  1
  H  H436  1  0.98009385  0.47871606  0.62145268  1
  O  O437  1  0.94750609  0.38345620  0.65562804  1
  C  C438  1  0.61392722  0.18198302  0.53921298  1
  C  C439  1  0.85707018  0.01356300  0.59939955  1
  O  O440  1  0.67696398  0.26320507  0.62440142  1
  O  O441  1  0.80900941  0.36861579  0.66495390  1
  O  O442  1  0.95783255  0.27523197  0.52562948  1
  C  C443  1  0.85070307  0.45723694  0.64104727  1
  O  O444  1  0.74219895  0.25599966  0.56517315  1
  H  H445  1  0.66712725  0.19324846  0.52038388  1
  C  C446  1  0.86930074  0.39883022  0.65283871  1
  Zn  Zn447  1  0.87647925  0.24092040  0.56930934  1
  O  O448  1  0.80119651  0.24575579  0.72233882  1
  C  C449  1  0.68187171  0.24458994  0.58957656  1
  C  C450  1  0.61210661  0.20394592  0.57895815  1
  C  C451  1  0.85976018  0.05331619  0.56679401  1
  C  C452  1  0.85956010  0.03739472  0.52607230  1
  Zn  Zn453  1  0.79893993  0.28054776  0.66265213  1
  H  H454  1  0.86105702  0.02474059  0.63063243  1
  C  C455  1  0.87222432  0.11149566  0.57940768  1
  H  H456  1  0.53507246  0.21504098  0.63435803  1
  O  O457  1  0.89492830  0.25875542  0.62692344  1
  O  O458  1  0.91399021  0.19083546  0.71496147  1
  Zn  Zn459  1  0.93104346  0.18992650  0.64978356  1
  C  C460  1  0.54801227  0.14876814  0.52473113  1
  C  C461  1  0.91333203  0.49155453  0.62387932  1
  C  C462  1  0.54419060  0.19299152  0.60617577  1
  H  H463  1  0.55598127  0.30132836  0.55358606  1
  H  H464  1  0.86599647  0.06838472  0.50246897  1
  Zn  Zn465  1  0.99275482  0.30892608  0.62570604  1
  O  O466  1  0.99332848  0.34800484  0.56235604  1
  C  C467  1  0.89894847  0.19050052  0.92920924  1
  O  O468  1  0.53936924  0.28519765  0.85391395  1
  C  C469  1  0.78964352  0.06477902  0.89145402  1
  C  C470  1  0.85329935  0.48941889  0.98905676  1
  H  H471  1  0.70773656  0.13548236  0.90048681  1
  C  C472  1  0.63691663  0.35403691  0.90258890  1
  H  H473  1  0.63359395  0.12099838  0.97774587  1
  H  H474  1  0.65737727  0.04832703  0.86724242  1
  H  H475  1  0.72423953  0.22026162  0.86278294  1
  C  C476  1  0.82846186  0.45631489  0.91858517  1
  C  C477  1  0.58805333  0.26165660  0.87873458  1
  C  C478  1  0.86971296  0.13577997  0.78684584  1
  C  C479  1  0.68636273  0.26624862  0.93616836  1
  H  H480  1  0.68712220  0.43306628  0.92610643  1
  C  C481  1  0.77659624  0.12752413  0.89609592  1
  H  H482  1  0.58794767  0.37122370  0.88232035  1
  H  H483  1  0.68468553  0.22009310  0.93716334  1
  C  C484  1  0.85329501  0.11526826  0.82585770  1
  O  O485  1  0.58430611  0.20895564  0.88205061  1
  C  C486  1  0.63785393  0.29704194  0.90834300  1
  C  C487  1  0.72277645  0.03080148  0.87427635  1
  H  H488  1  0.86726142  0.33156305  0.89463314  1
  C  C489  1  0.75320253  0.35633118  0.94939039  1
  H  H490  1  0.99441069  0.27186786  0.87891842  1
  C  C491  1  0.75004348  0.29746300  0.95693944  1
  C  C492  1  0.82998530  0.11843253  0.97002130  1
  C  C493  1  0.91898185  0.32749920  0.91681003  1
  H  H494  1  0.77997394  0.08707415  0.97325116  1
  C  C495  1  0.80449096  0.14837026  0.85294211  1
  C  C496  1  0.68798293  0.38735586  0.92765068  1
  H  H497  1  0.87195917  0.07132150  0.83418719  1
  H  H498  1  0.92937435  0.06704888  0.90454177  1
  C  C499  1  0.77052379  0.20049296  0.84173316  1
  C  C500  1  0.95422115  0.20617211  0.96132362  1
  C  C501  1  0.78896403  0.22183855  0.80329170  1
  C  C502  1  0.87364890  0.04239013  0.89563056  1
  C  C503  1  0.83752257  0.14728181  0.93067954  1
  H  H504  1  0.75841858  0.26065834  0.79484558  1
  C  C505  1  0.84171235  0.18985548  0.77876531  1
  H  H506  1  0.79835927  0.27713518  0.97802133  1
  C  C507  1  0.83448639  0.38478632  0.96885225  1
  H  H508  1  0.80699914  0.42019597  0.89800907  1
  C  C509  1  0.84463756  0.44737139  0.95936957  1
  C  C510  1  0.91749251  0.35531590  0.95560113  1
  H  H511  1  0.89862692  0.11076681  0.76126142  1
  H  H512  1  0.90544311  0.20806536  0.89737880  1
  H  H513  1  0.70312774  0.46634565  0.99032408  1
  C  C514  1  0.99600537  0.30057579  0.90608299  1
  C  C515  1  0.98821158  0.35588677  0.98218892  1
  C  C516  1  0.94699756  0.17611479  0.99684237  1
  Zn  Zn517  1  0.72286202  0.78416739  0.14356041  1
  C  C518  1  0.70672563  0.96609705  0.12311746  1
  C  C519  1  0.60262205  0.55612727  0.05434190  1
  O  O520  1  0.83443068  0.75010751  0.11175045  1
  O  O521  1  0.61323485  0.68381655  0.19666902  1
  O  O522  1  0.74443582  0.87330794  0.13846289  1
  H  H523  1  0.86891347  0.69082106  0.00411565  1
  C  C524  1  0.58669424  0.61526083  0.06700120  1
  C  C525  1  0.56147140  0.52068824  0.08276142  1
  O  O526  1  0.67627953  0.76149183  0.20796207  1
  Zn  Zn527  1  0.56234051  0.69517041  0.13603702  1
  O  O528  1  0.60824550  0.89449144  0.12933898  1
  H  H529  1  0.52001447  0.53792689  0.10861832  1
  O  O530  1  0.61947791  0.75731582  0.11118862  1
  O  O531  1  0.78422334  0.74466291  0.04864534  1
  C  C532  1  0.83891054  0.73533663  0.07590375  1
  Zn  Zn533  1  0.65385766  0.74032240  0.05125397  1
  Zn  Zn534  1  0.54832045  0.82084535  0.09999485  1
  C  C535  1  0.92363458  0.68512433  0.02544406  1
  C  C536  1  0.92054731  0.70388464  0.06581078  1
  C  C537  1  0.64681878  0.71761460  0.21983023  1
  O  O538  1  0.57574275  0.77669241  0.00151844  1
  C  C539  1  0.68835740  0.90851866  0.13124707  1
  O  O540  1  0.54679012  0.62424150  0.09878035  1
  H  H541  1  0.98242676  0.79185099  0.04193483  1
  H  H542  1  0.84019064  0.95221141  0.13677984  1
  C  C543  1  0.64740795  0.53676405  0.01978229  1
  O  O544  1  0.61898673  0.65134717  0.04467951  1
  C  C545  1  0.99341661  0.69511114  0.09072734  1
  H  H546  1  0.98716120  0.71210188  0.12254128  1
  C  C547  1  0.79282644  0.98243095  0.12918994  1
  C  C548  1  0.99790405  0.65871386  0.00917099  1
  H  H549  1  0.57025455  0.98334566  0.11311093  1
  C  C550  1  0.52138734  0.81457983  0.00618052  1
  O  O551  1  0.52413987  0.84705381  0.03623498  1
  H  H552  1  0.68605360  0.56616563  0.00454234  1
  C  C553  1  0.88379241  0.77519899  0.37588812  1
  H  H554  1  0.84673114  0.96897872  0.48077234  1
  C  C555  1  0.65091284  0.63257803  0.31492035  1
  H  H556  1  0.89251957  0.58902567  0.47405938  1
  C  C557  1  0.60400115  0.68408742  0.41669079  1
  H  H558  1  0.76002080  0.60987876  0.46452961  1
  H  H559  1  0.83485964  0.88444781  0.37348838  1
  H  H560  1  0.59410661  0.62497198  0.25305345  1
  H  H561  1  0.58053857  0.69425726  0.38522137  1
  H  H562  1  0.73439940  0.93182008  0.42222619  1
  H  H563  1  0.79914522  0.65661312  0.38539225  1
  O  O564  1  0.92175375  0.80637394  0.35056116  1
  C  C565  1  0.55286176  0.69553287  0.45003252  1
  C  C566  1  0.69075847  0.74452108  0.29311409  1
  C  C567  1  0.57726066  0.68008349  0.48906309  1
  C  C568  1  0.54865057  0.85760622  0.46119603  1
  H  H569  1  0.60057428  0.58738060  0.40489788  1
  C  C570  1  0.73108159  0.57879045  0.38243571  1
  H  H571  1  0.74607119  0.74892279  0.35271230  1
  C  C572  1  0.70192761  0.85970088  0.45668077  1
  H  H573  1  0.86507373  0.56076973  0.36122427  1
  C  C574  1  0.74946954  0.88927929  0.42635765  1
  C  C575  1  0.64641225  0.55883681  0.39320468  1
  C  C576  1  0.82429208  0.80658552  0.40435622  1
  C  C577  1  0.77642882  0.77673373  0.43355473  1
  C  C578  1  0.80471323  0.86262492  0.39978662  1
  C  C579  1  0.70682614  0.63979464  0.46273795  1
  C  C580  1  0.70960536  0.72326050  0.33194888  1
  H  H581  1  0.61585698  0.83804066  0.40403025  1
  C  C582  1  0.73392804  0.64258854  0.38241036  1
  C  C583  1  0.65215920  0.70547083  0.26659982  1
  C  C584  1  0.55246991  0.83503883  0.42126082  1
  C  C585  1  0.71763213  0.80278040  0.45904484  1
  H  H586  1  0.79315769  0.73254916  0.43800305  1
  H  H587  1  0.71526018  0.78776625  0.28176336  1
  C  C588  1  0.69180165  0.66754372  0.34148656  1
  C  C589  1  0.68159886  0.65449615  0.42255843  1
  O  O590  1  0.90040374  0.72656995  0.37891722  1
  C  C591  1  0.62900507  0.88657072  0.48155034  1
  C  C592  1  0.55590664  0.96505019  0.44378470  1
  C  C593  1  0.61585513  0.94878474  0.47424336  1
  H  H594  1  0.67595473  0.77981987  0.48011703  1
  H  H595  1  0.63539682  0.58901063  0.32379233  1
  C  C596  1  0.62858913  0.65238466  0.27575021  1
  C  C597  1  0.62877787  0.50407171  0.38266311  1
  C  C598  1  0.80140339  0.54628141  0.36763287  1
  H  H599  1  0.99450384  0.88236617  0.49302032  1
  H  H600  1  0.52553290  0.93505748  0.42516193  1
  C  C601  1  0.65637923  0.65359453  0.49763728  1
  C  C602  1  0.88419355  0.61701062  0.49928750  1
  C  C603  1  0.65962103  0.99153680  0.49699991  1
  O  O604  1  0.99855866  0.65699203  0.44074052  1
  C  C605  1  0.98560939  0.69056365  0.47021303  1
  C  C606  1  0.83122239  0.88095622  0.53444331  1
  H  H607  1  0.57454398  0.88528448  0.61616135  1
  H  H608  1  0.97063075  0.68732699  0.70761483  1
  H  H609  1  0.93374933  0.56883660  0.59423594  1
  C  C610  1  0.88841958  0.54287397  0.60923478  1
  H  H611  1  0.68316890  0.72646597  0.58875413  1
  H  H612  1  0.68198726  0.54542804  0.64686774  1
  C  C613  1  0.84910104  0.98109098  0.51461825  1
  H  H614  1  0.70111732  0.93394878  0.58068612  1
  O  O615  1  0.56677678  0.72579072  0.64098739  1
  H  H616  1  0.70505959  0.98096568  0.52022755  1
  H  H617  1  0.70560328  0.62385144  0.60000811  1
  H  H618  1  0.67230639  0.64134198  0.52994871  1
  H  H619  1  0.66942276  0.66561116  0.66195744  1
  C  C620  1  0.88548733  0.66343680  0.65830809  1
  C  C621  1  0.73566318  0.67370835  0.67097385  1
  H  H622  1  0.68975290  0.71273584  0.72647296  1
  H  H623  1  0.79566000  0.77494367  0.53975973  1
  C  C624  1  0.82219516  0.64411248  0.56711834  1
  C  C625  1  0.75359528  0.85570162  0.55832333  1
  C  C626  1  0.74769476  0.79717441  0.55733974  1
  C  C627  1  0.69071440  0.88893256  0.57772726  1
  H  H628  1  0.94066242  0.74889011  0.52899534  1
  C  C629  1  0.62917809  0.80404229  0.60357218  1
  C  C630  1  0.68732838  0.77033114  0.58109136  1
  C  C631  1  0.62644613  0.86133258  0.60078290  1
  C  C632  1  0.57019502  0.77674262  0.63422654  1
  C  C633  1  0.80171072  0.65370534  0.64512373  1
  H  H634  1  0.79892547  0.56689150  0.53345591  1
  C  C635  1  0.83472553  0.70164659  0.72178546  1
  H  H636  1  0.93584604  0.64842288  0.63825474  1
  C  C637  1  0.83476046  0.60588581  0.53306393  1
  C  C638  1  0.74721115  0.70039286  0.70864738  1
  C  C639  1  0.80617110  0.56220518  0.61732808  1
  H  H640  1  0.85361933  0.72278325  0.59339379  1
  C  C641  1  0.77434950  0.62137503  0.60556873  1
  C  C642  1  0.90805974  0.70892952  0.53208302  1
  C  C643  1  0.85667001  0.69721670  0.56586667  1
  H  H644  1  0.85072261  0.92747601  0.61367399  1
  C  C645  1  0.84412726  0.94210309  0.54664212  1
  C  C646  1  0.85076673  0.95987891  0.58910702  1
  C  C647  1  0.90522422  0.68285331  0.69766538  1
  H  H648  1  0.86693261  0.83156606  0.60656292  1
  C  C649  1  0.91889887  0.85406326  0.54645306  1
  C  C650  1  0.92336187  0.82956059  0.58578980  1
  C  C651  1  0.74400286  0.53005700  0.63962349  1
  O  O652  1  0.51958723  0.80747194  0.65386961  1
  H  H653  1  0.63665236  0.87453974  0.51343762  1
  C  C654  1  0.99205053  0.85791174  0.52119925  1
  C  C655  1  0.52137038  0.69487043  0.52435787  1
  O  O656  1  0.54408859  0.67662414  0.55897276  1
  H  H657  1  0.81473064  0.87626380  0.50027687  1
  C  C658  1  0.92103546  0.67019694  0.50096174  1
  C  C659  1  0.99757517  0.80185347  0.59774233  1
  H  H660  1  0.99945228  0.77594096  0.62496513  1
  C  C661  1  0.89369288  0.98942789  0.88350128  1
  C  C662  1  0.52412680  0.68730018  0.88939084  1
  C  C663  1  0.82897647  0.51072120  0.90395747  1
  C  C664  1  0.60783037  0.65774680  0.95051384  1
  C  C665  1  0.84770976  0.90322666  0.85138219  1
  O  O666  1  0.92199148  0.88375240  0.85206905  1
  C  C667  1  0.82655737  0.95736334  0.86752850  1
  O  O668  1  0.78666776  0.73235950  0.78796075  1
  O  O669  1  0.87072717  0.64769450  0.94419178  1
  O  O670  1  0.67688210  0.75133171  0.86812260  1
  Zn  Zn671  1  0.79139175  0.78678618  0.83927739  1
  H  H672  1  0.66945832  0.66012754  0.96672975  1
  O  O673  1  0.78117083  0.87253751  0.84271356  1
  C  C674  1  0.85357339  0.61203072  0.91781646  1
  C  C675  1  0.84527914  0.55371200  0.93155805  1
  C  C676  1  0.67077780  0.72636448  0.90177838  1
  C  C677  1  0.59675669  0.68755858  0.91447438  1
  Zn  Zn678  1  0.86787509  0.74043942  0.93217380  1
  O  O679  1  0.88414495  0.75100799  0.87320387  1
  C  C680  1  0.85579128  0.54341826  0.97373106  1
  O  O681  1  0.72536914  0.73837973  0.92860559  1
  Zn  Zn682  1  0.98327904  0.80920987  0.87058573  1
  C  C683  1  0.53645473  0.63048356  0.96452513  1
  O  O684  1  0.84624117  0.62456655  0.88072114  1
  C  C685  1  0.73867274  0.97672350  0.86408555  1
  Zn  Zn686  1  0.91512499  0.68191972  0.84072069  1
  H  H687  1  0.68847996  0.94751941  0.85376576  1
  O  O688  1  0.92569456  0.71975740  0.77824155  1
  C  C689  1  0.85090328  0.72029043  0.76441112  1
  H  H690  1  0.95959308  0.97212556  0.88416335  1
  O  O691  1  0.94198126  0.79581991  0.96964049  1
  H  H692  1  0.52370533  0.71188662  0.85822153  1
  H  H693  1  0.81228325  0.52234480  0.87197907  1
  H  H694  1  0.54028154  0.60363025  0.99179585  1
  H  H695  1  0.86605673  0.57796106  0.99403107  1
