# generated using pymatgen
data_ZnH3C7NO4
_symmetry_space_group_name_H-M   'P 1'
_cell_length_a   32.77899179
_cell_length_b   14.09818126
_cell_length_c   13.22207605
_cell_angle_alpha   90.00000000
_cell_angle_beta   90.00000000
_cell_angle_gamma   90.00000000
_symmetry_Int_Tables_number   1
_chemical_formula_structural   ZnH3C7NO4
_chemical_formula_sum   'Zn16 H48 C112 N16 O64'
_cell_volume   6110.24089061
_cell_formula_units_Z   16
loop_
 _symmetry_equiv_pos_site_id
 _symmetry_equiv_pos_as_xyz
  1  'x, y, z'
loop_
 _atom_site_type_symbol
 _atom_site_label
 _atom_site_symmetry_multiplicity
 _atom_site_fract_x
 _atom_site_fract_y
 _atom_site_fract_z
 _atom_site_occupancy
  N  N0  1  0.05984934  0.36362437  0.14347400  1
  H  H1  1  0.06637973  0.24624811  0.07944579  1
  C  C2  1  0.07778056  0.28070173  0.14970736  1
  O  O3  1  0.10609947  0.10674245  0.13668647  1
  H  H4  1  0.10897274  0.47282280  0.06517934  1
  C  C5  1  0.06251166  0.42369106  0.22053225  1
  C  C6  1  0.11826600  0.14938191  0.21395868  1
  Zn  Zn7  1  0.20596723  0.41813292  0.03882318  1
  O  O8  1  0.23461825  0.30107726  0.10284618  1
  C  C9  1  0.10166033  0.24877683  0.23155470  1
  O  O10  1  0.03292292  0.00917272  0.07274772  1
  H  H11  1  0.04857268  0.49268412  0.21404942  1
  Zn  Zn12  1  0.02837623  0.41311747  0.01185791  1
  H  H13  1  0.25693366  0.14300247  0.09278393  1
  O  O14  1  0.40610597  0.35533102  0.21114682  1
  H  H15  1  0.40487166  0.17174613  0.16561148  1
  C  C16  1  0.26985092  0.31310124  0.12712211  1
  C  C17  1  0.37115006  0.17208637  0.15179383  1
  H  H18  1  0.48556130  0.05079103  0.09789647  1
  C  C19  1  0.30429973  0.24404964  0.12253638  1
  C  C20  1  0.34736278  0.25574634  0.15124849  1
  C  C21  1  0.31795021  0.07375475  0.11354913  1
  O  O22  1  0.28004929  0.39883411  0.14834271  1
  Zn  Zn23  1  0.33746572  0.45428313  0.12621482  1
  N  N24  1  0.35690664  0.08529290  0.13991117  1
  C  C25  1  0.29029127  0.15082911  0.10259000  1
  C  C26  1  0.47425124  0.07942268  0.17149170  1
  C  C27  1  0.49182216  0.15159723  0.23272403  1
  C  C28  1  0.37529224  0.33826689  0.16829797  1
  N  N29  1  0.44214570  0.03072223  0.20610134  1
  C  C30  1  0.08684841  0.40159283  0.30351273  1
  C  C31  1  0.10951657  0.31580574  0.30949422  1
  O  O32  1  0.13986482  0.10287204  0.27304956  1
  C  C33  1  0.13479326  0.30906628  0.40256051  1
  O  O34  1  0.13017401  0.38009848  0.46195439  1
  H  H35  1  0.09215638  0.45527756  0.36351250  1
  Zn  Zn36  1  0.14721383  0.09215480  0.45075084  1
  O  O37  1  0.15758723  0.24191286  0.42589259  1
  H  H38  1  0.01994282  0.08111449  0.36918699  1
  O  O39  1  0.22800198  0.40305562  0.48417446  1
  H  H40  1  0.24741152  0.28432463  0.37298255  1
  C  C41  1  0.28101353  0.00379668  0.36613285  1
  N  N42  1  0.30227783  0.22967359  0.35417060  1
  C  C43  1  0.44233447  0.11850818  0.36064044  1
  C  C44  1  0.30428198  0.02235456  0.45437657  1
  C  C45  1  0.29743930  0.35839694  0.46542527  1
  C  C46  1  0.42755624  0.04732587  0.29966755  1
  O  O47  1  0.48944201  0.32649804  0.43428800  1
  C  C48  1  0.42285252  0.12341023  0.46595396  1
  C  C49  1  0.28011524  0.29184814  0.39550551  1
  C  C50  1  0.34102549  0.22006557  0.38034002  1
  H  H51  1  0.31992437  0.08954122  0.46702113  1
  C  C52  1  0.47565483  0.17337513  0.32755516  1
  H  H53  1  0.35633886  0.16157755  0.33960709  1
  C  C54  1  0.36138095  0.27860387  0.44616732  1
  H  H55  1  0.27357231  0.06469160  0.31291582  1
  H  H56  1  0.39560037  0.27754291  0.45437631  1
  O  O57  1  0.39456788  0.06959531  0.47812987  1
  C  C58  1  0.33896537  0.35224413  0.49606122  1
  C  C59  1  0.05332868  0.37783738  0.65792843  1
  N  N60  1  0.05155072  0.44943156  0.59361313  1
  H  H61  1  0.06944825  0.31696373  0.62326978  1
  O  O62  1  0.10501098  0.04171924  0.57909918  1
  C  C63  1  0.12151659  0.01960014  0.66252298  1
  O  O64  1  0.19624062  0.13036936  0.57566677  1
  C  C65  1  0.19678688  0.16808850  0.65922940  1
  O  O66  1  0.17581228  0.23273367  0.68837987  1
  C  C67  1  0.23488807  0.14635911  0.73566683  1
  O  O68  1  0.10769126  0.05610633  0.73981247  1
  Zn  Zn69  1  0.17546943  0.47488664  0.50071884  1
  H  H70  1  0.26487152  0.05879518  0.61351744  1
  N  N71  1  0.30505121  0.09341893  0.71518982  1
  C  C72  1  0.26325031  0.41667283  0.51284143  1
  O  O73  1  0.43554660  0.17469508  0.54027443  1
  O  O74  1  0.26737932  0.47922040  0.58111480  1
  O  O75  1  0.48037697  0.34143381  0.69647168  1
  C  C76  1  0.36468809  0.41007237  0.56411920  1
  O  O77  1  0.34958730  0.48195906  0.61323147  1
  Zn  Zn78  1  0.45151689  0.31054127  0.55259424  1
  O  O79  1  0.40115382  0.39313264  0.59135335  1
  C  C80  1  0.26942550  0.10327927  0.67706496  1
  C  C81  1  0.04026610  0.30369534  0.82263218  1
  O  O82  1  0.02258168  0.30107519  0.90959530  1
  O  O83  1  0.06069472  0.23038067  0.79457667  1
  O  O84  1  0.12132586  0.36419457  0.81359011  1
  Zn  Zn85  1  0.12120816  0.20355571  0.78801246  1
  C  C86  1  0.14973488  0.40934916  0.85235997  1
  O  O87  1  0.16483271  0.14174162  0.89789758  1
  C  C88  1  0.20064094  0.11492721  0.91161176  1
  O  O89  1  0.17930510  0.36580287  0.89134515  1
  C  C90  1  0.23579764  0.14338281  0.84391400  1
  O  O91  1  0.21022646  0.06363235  0.98379767  1
  H  H92  1  0.08300006  0.49797880  0.77339143  1
  O  O93  1  0.23832039  0.48560201  0.91869290  1
  C  C94  1  0.00980195  0.46658237  0.77793417  1
  C  C95  1  0.03529598  0.38567126  0.75499588  1
  H  H96  1  0.28098042  0.08136758  0.94501255  1
  C  C97  1  0.44688500  0.20111995  0.83310800  1
  H  H98  1  0.47701535  0.17553241  0.80770372  1
  N  N99  1  0.43241997  0.13222073  0.88822780  1
  C  C100  1  0.37478763  0.39865288  0.90656711  1
  H  H101  1  0.38179279  0.07916207  0.96344547  1
  Zn  Zn102  1  0.25938495  0.26992641  0.81833572  1
  O  O103  1  0.38174325  0.47751577  0.86657814  1
  C  C104  1  0.31138544  0.14200191  0.80030462  1
  H  H105  1  0.34296698  0.12501768  0.82812481  1
  C  C106  1  0.46132822  0.36937790  0.77559532  1
  O  O107  1  0.45477043  0.45684912  0.78064185  1
  C  C108  1  0.27703234  0.13324912  0.88213077  1
  C  C109  1  0.37847053  0.23314265  0.93737267  1
  C  C110  1  0.39796750  0.30733397  0.88611936  1
  C  C111  1  0.39538929  0.14253467  0.93243495  1
  C  C112  1  0.43407413  0.29751663  0.82839706  1
  H  H113  1  0.35094626  0.24113680  0.98523524  1
  O  O114  1  0.34571924  0.38688182  0.96376024  1
  C  C115  1  0.09928380  0.54746345  0.04980633  1
  Zn  Zn116  1  0.09049918  0.96510932  0.14190668  1
  C  C117  1  0.12635689  0.62792299  0.06425404  1
  Zn  Zn118  1  0.21970475  0.91943643  0.04310267  1
  C  C119  1  0.16554111  0.59717178  0.11148174  1
  O  O120  1  0.22276432  0.84487634  0.21434798  1
  O  O121  1  0.19028322  0.65543216  0.14480099  1
  O  O122  1  0.17133042  0.50850587  0.12501185  1
  O  O123  1  0.16980182  0.81373409  0.01847835  1
  C  C124  1  0.00094846  0.95961713  0.08279994  1
  C  C125  1  0.10931393  0.71537960  0.03201777  1
  O  O126  1  0.23399898  0.99178848  0.20087251  1
  C  C127  1  0.23839330  0.91938033  0.24825272  1
  N  N128  1  0.06208974  0.54163430  0.01665734  1
  O  O129  1  0.11077870  0.88128920  0.00413270  1
  C  C130  1  0.13133064  0.80872833  0.01838727  1
  C  C131  1  0.06713618  0.71438297  0.01652622  1
  C  C132  1  0.04566204  0.62690204  0.00113355  1
  O  O133  1  0.06947571  0.84896773  0.24141475  1
  H  H134  1  0.31340134  0.99739338  0.10858780  1
  H  H135  1  0.30087829  0.61903032  0.15084480  1
  Zn  Zn136  1  0.35317988  0.71969607  0.14797650  1
  O  O137  1  0.32602859  0.59694121  0.11521563  1
  C  C138  1  0.41378006  0.85157654  0.06676933  1
  O  O139  1  0.45064215  0.84564108  0.05662430  1
  O  O140  1  0.31566064  0.83003876  0.09964576  1
  C  C141  1  0.31141244  0.87212966  0.01278793  1
  O  O142  1  0.39862790  0.83088527  0.15395396  1
  H  H143  1  0.03972651  0.90083317  0.38605625  1
  C  C144  1  0.05473195  0.85449421  0.43988068  1
  C  C145  1  0.08441776  0.78860487  0.40995928  1
  C  C146  1  0.09080669  0.79442579  0.29695343  1
  C  C147  1  0.13683836  0.64845250  0.48129163  1
  C  C148  1  0.10470872  0.72912699  0.48128339  1
  O  O149  1  0.15187261  0.94690307  0.43410753  1
  O  O150  1  0.15224660  0.62152788  0.40080247  1
  O  O151  1  0.18791088  0.81286080  0.44358819  1
  Zn  Zn152  1  0.18646215  0.72531021  0.29477469  1
  C  C153  1  0.17023272  0.88422303  0.48413833  1
  O  O154  1  0.02376519  0.57636085  0.37122628  1
  O  O155  1  0.24672008  0.70372433  0.33536580  1
  O  O156  1  0.11793070  0.74425134  0.25957249  1
  C  C157  1  0.00663444  0.63878494  0.40700197  1
  H  H158  1  0.40140071  0.99544050  0.30968730  1
  O  O159  1  0.26645464  0.69425091  0.49381461  1
  C  C160  1  0.26039405  0.74126242  0.41515202  1
  C  C161  1  0.42683013  0.80995143  0.38094327  1
  C  C162  1  0.45252630  0.87649854  0.42609363  1
  C  C163  1  0.27392928  0.84296131  0.41707507  1
  C  C164  1  0.40241638  0.74815103  0.43657089  1
  H  H165  1  0.42398391  0.81354092  0.29597082  1
  C  C166  1  0.26573281  0.91414020  0.34141156  1
  H  H167  1  0.47168835  0.93659083  0.38684474  1
  C  C168  1  0.37960161  0.67285639  0.38006881  1
  O  O169  1  0.38748667  0.66677602  0.28805860  1
  O  O170  1  0.36030210  0.61018550  0.42801431  1
  H  H171  1  0.01412882  0.90596223  0.56468049  1
  N  N172  1  0.05514022  0.79257412  0.60792654  1
  C  C173  1  0.08544363  0.73632311  0.57648823  1
  H  H174  1  0.09046825  0.69344803  0.64438561  1
  C  C175  1  0.04051761  0.85623799  0.53952929  1
  O  O176  1  0.14675224  0.60274984  0.55596032  1
  C  C177  1  0.15848608  0.95222648  0.66601606  1
  C  C178  1  0.17731617  0.89237545  0.59484267  1
  C  C179  1  0.20847628  0.83382442  0.63219460  1
  H  H180  1  0.22216351  0.78624987  0.57582540  1
  C  C181  1  0.22104097  0.83918068  0.73364517  1
  C  C182  1  0.01161504  0.54043004  0.70729456  1
  C  C183  1  0.03397841  0.53068466  0.61671420  1
  H  H184  1  0.01930288  0.83748141  0.74865317  1
  H  H185  1  0.03493946  0.57916922  0.54987623  1
  Zn  Zn186  1  0.31129572  0.58663023  0.54021893  1
  H  H187  1  0.31005556  0.82934692  0.56688861  1
  C  C188  1  0.37923039  0.70521173  0.62727876  1
  C  C189  1  0.43202257  0.82437523  0.58243374  1
  N  N190  1  0.31161000  0.95521830  0.52111991  1
  O  O191  1  0.34238487  0.69514977  0.62358522  1
  H  H192  1  0.43707814  0.83494914  0.66657459  1
  C  C193  1  0.40499172  0.75696462  0.54456685  1
  Zn  Zn194  1  0.34775479  0.98426547  0.64860969  1
  O  O195  1  0.39948388  0.66774463  0.70074473  1
  Zn  Zn196  1  0.40093366  0.52311040  0.71962782  1
  N  N197  1  0.45281137  0.88456969  0.52504035  1
  C  C198  1  0.29790382  0.87172494  0.50259175  1
  H  H199  1  0.01289232  0.62522664  0.98030534  1
  C  C200  1  0.10929293  0.54427240  0.79065339  1
  C  C201  1  0.16817255  0.67436220  0.83177492  1
  C  C202  1  0.22351621  0.56781730  0.89327901  1
  C  C203  1  0.17867534  0.57771450  0.85165118  1
  N  N204  1  0.20244941  0.89104962  0.80123724  1
  H  H205  1  0.19123758  0.73044021  0.84176834  1
  H  H206  1  0.04970199  0.77846263  0.99620454  1
  H  H207  1  0.16001677  0.97392901  0.83690082  1
  C  C208  1  0.13071866  0.69824680  0.78414625  1
  H  H209  1  0.04288636  0.94181227  0.91528381  1
  C  C210  1  0.14711443  0.51604179  0.83256170  1
  C  C211  1  0.00458927  0.84329254  0.82413251  1
  O  O212  1  0.24565160  0.63500072  0.89124281  1
  C  C213  1  0.01522251  0.89768351  0.90995404  1
  C  C214  1  0.17174024  0.94139896  0.76685820  1
  N  N215  1  0.10058951  0.63399835  0.77987790  1
  H  H216  1  0.11807782  0.76795904  0.76143520  1
  H  H217  1  0.24608723  0.79783157  0.77007456  1
  C  C218  1  0.34738303  0.89557982  0.95034951  1
  N  N219  1  0.41192115  0.93345906  0.79845985  1
  C  C220  1  0.33845150  0.92432400  0.84923613  1
  C  C221  1  0.38929962  0.88574894  0.97582477  1
  H  H222  1  0.44990376  0.90157668  0.90039774  1
  C  C223  1  0.37337176  0.93787784  0.78690617  1
  O  O224  1  0.27651879  0.89542365  0.98397882  1
  C  C225  1  0.41560984  0.90595085  0.89447559  1
  H  H226  1  0.30609388  0.93646144  0.81799018  1
  H  H227  1  0.51948448  0.18641947  0.20773346  1
  O  O228  1  0.55297412  0.10275575  0.03009549  1
  O  O229  1  0.53991403  0.24181452  0.38408746  1
  C  C230  1  0.50276121  0.25213425  0.38387860  1
  C  C231  1  0.99731707  0.03918594  0.41021054  1
  C  C232  1  0.98456762  0.05709147  0.50969755  1
  H  H233  1  0.99702943  0.10552019  0.56594891  1
  N  N234  1  0.96320918  0.00487159  0.57110568  1
  C  C235  1  0.54070684  0.09535982  0.94778462  1
  O  O236  1  0.52552076  0.08580195  0.86775001  1
  O  O237  1  0.97671005  0.44681400  0.93681031  1
  O  O238  1  0.88842866  0.83857875  0.06895199  1
  C  C239  1  0.92247727  0.81514125  0.08124210  1
  O  O240  1  0.93375059  0.76865516  0.16085784  1
  O  O241  1  0.97884099  0.96442277  0.15798142  1
  C  C242  1  0.95116541  0.90784454  0.42930761  1
  O  O243  1  0.98759942  0.70331951  0.43922873  1
  C  C244  1  0.97644741  0.96229026  0.36777079  1
  Zn  Zn245  1  0.95086201  0.85264738  0.28653672  1
  H  H246  1  0.92498159  0.89385876  0.58733881  1
  H  H247  1  0.99520271  0.60446146  0.72538812  1
  C  C248  1  0.94352014  0.93297087  0.53167030  1
  C  C249  1  0.95583063  0.83397062  0.99511689  1
  C  C250  1  0.94728768  0.78724850  0.90558183  1
  H  H251  1  0.91772594  0.74885544  0.89049679  1
  O  O252  1  0.96630917  0.58098356  0.85938800  1
  C  C253  1  0.98988128  0.89430449  0.99561731  1
  C  C254  1  0.98236690  0.50579775  0.86241834  1
  N  N255  1  0.97099624  0.79463369  0.82353750  1
