# generated using pymatgen
data_CuH2(C3O2)2
_symmetry_space_group_name_H-M   'P 1'
_cell_length_a   20.36931839
_cell_length_b   24.27522836
_cell_length_c   21.44137171
_cell_angle_alpha   90.00000000
_cell_angle_beta   90.00000000
_cell_angle_gamma   90.00000000
_symmetry_Int_Tables_number   1
_chemical_formula_structural   CuH2(C3O2)2
_chemical_formula_sum   'Cu48 H96 C288 O192'
_cell_volume   10602.11197346
_cell_formula_units_Z   48
loop_
 _symmetry_equiv_pos_site_id
 _symmetry_equiv_pos_as_xyz
  1  'x, y, z'
loop_
 _atom_site_type_symbol
 _atom_site_label
 _atom_site_symmetry_multiplicity
 _atom_site_fract_x
 _atom_site_fract_y
 _atom_site_fract_z
 _atom_site_occupancy
  C  C0  1  0.12167875  0.14710016  0.08021468  1
  C  C1  1  0.08639784  0.23774349  0.05076443  1
  C  C2  1  0.09422312  0.20032405  0.10052278  1
  C  C3  1  0.28725019  0.00172620  0.13206705  1
  C  C4  1  0.33358352  0.41053121  0.12638721  1
  H  H5  1  0.39061001  0.06539872  0.15911841  1
  C  C6  1  0.05470516  0.26324398  0.17539472  1
  O  O7  1  0.12826059  0.10793935  0.11796215  1
  C  C8  1  0.07957295  0.21094851  0.16224108  1
  O  O9  1  0.32435901  0.32501101  0.17925724  1
  O  O10  1  0.36801483  0.20477888  0.07432441  1
  Cu  Cu11  1  0.19772068  0.08858176  0.16584691  1
  C  C12  1  0.03114996  0.27717629  0.23844761  1
  C  C13  1  0.33661755  0.37283489  0.18233837  1
  H  H14  1  0.32479536  0.34442099  0.06658168  1
  O  O15  1  0.26778564  0.05212993  0.13510285  1
  C  C16  1  0.32775474  0.39012101  0.06591898  1
  C  C17  1  0.34683585  0.47881418  0.02163492  1
  C  C18  1  0.34968914  0.46584350  0.13344922  1
  H  H19  1  0.07965721  0.17622680  0.19491710  1
  C  C20  1  0.40438428  0.02425000  0.14468373  1
  C  C21  1  0.06134939  0.29055615  0.06352427  1
  C  C22  1  0.04611374  0.30079588  0.12770064  1
  O  O23  1  0.05357607  0.32596068  0.01946350  1
  H  H24  1  0.35036497  0.48584265  0.17931324  1
  O  O25  1  0.00781308  0.32491070  0.24298630  1
  O  O26  1  0.13234212  0.14112263  0.02199154  1
  O  O27  1  0.35768064  0.39871825  0.23207803  1
  C  C28  1  0.33469374  0.42345192  0.01302245  1
  O  O29  1  0.23170656  0.12911294  0.23390224  1
  C  C30  1  0.46735725  0.00466161  0.13859273  1
  C  C31  1  0.34928101  0.16839150  0.09524796  1
  H  H32  1  0.02629471  0.34114396  0.14026208  1
  O  O33  1  0.47871413  0.34207955  0.21858186  1
  H  H34  1  0.10163395  0.22652202  0.00540416  1
  C  C35  1  0.21287287  0.13630528  0.28875568  1
  C  C36  1  0.44161721  0.16060308  0.34473612  1
  C  C37  1  0.35405431  0.17295399  0.42522219  1
  C  C38  1  0.28684409  0.17642702  0.44136489  1
  C  C39  1  0.23621067  0.16463341  0.39960308  1
  C  C40  1  0.32572403  0.14599349  0.32206507  1
  C  C41  1  0.37313441  0.15973719  0.36616534  1
  C  C42  1  0.07923918  0.27360974  0.49320247  1
  C  C43  1  0.19255038  0.01266009  0.47664334  1
  H  H44  1  0.29127003  0.44941951  0.31323559  1
  Cu  Cu45  1  0.09262792  0.19179589  0.30199887  1
  O  O46  1  0.18437490  0.48314264  0.28184194  1
  C  C47  1  0.31655058  0.05704424  0.48664126  1
  H  H48  1  0.18457663  0.16706588  0.41078230  1
  H  H49  1  0.39076447  0.18285331  0.46093760  1
  H  H50  1  0.34489725  0.12808888  0.27671945  1
  Cu  Cu51  1  0.47085898  0.05036606  0.31843714  1
  O  O52  1  0.39333023  0.41476570  0.34639742  1
  C  C53  1  0.40509880  0.45757239  0.37792223  1
  O  O54  1  0.04377211  0.17472436  0.37128539  1
  C  C55  1  0.25946779  0.15045096  0.34010007  1
  C  C56  1  0.33989749  0.03098471  0.37585750  1
  C  C57  1  0.29778895  0.03241609  0.43066322  1
  O  O58  1  0.48433910  0.26191959  0.26938788  1
  C  C59  1  0.06201694  0.18758370  0.42637043  1
  O  O60  1  0.09376860  0.15571214  0.46029958  1
  Cu  Cu61  1  0.43761554  0.38784264  0.28034303  1
  O  O62  1  0.45024444  0.45732796  0.42070871  1
  O  O63  1  0.03094608  0.24319840  0.28259539  1
  O  O64  1  0.31718600  0.01118798  0.32482243  1
  C  C65  1  0.04583802  0.24449615  0.44458872  1
  O  O66  1  0.15258900  0.13223773  0.30220869  1
  O  O67  1  0.40023929  0.03900250  0.38371327  1
  O  O68  1  0.45870584  0.12737350  0.30304810  1
  C  C69  1  0.01210716  0.35661525  0.47607551  1
  O  O70  1  0.48499007  0.18529543  0.37552695  1
  H  H71  1  0.36508560  0.07278749  0.49165716  1
  C  C72  1  0.23552376  0.00831984  0.42750867  1
  C  C73  1  0.30646228  0.49113307  0.33016804  1
  C  C74  1  0.27040266  0.19405176  0.50476995  1
  Cu  Cu75  1  0.33212695  0.17572741  0.62769112  1
  C  C76  1  0.21158750  0.03353066  0.53249048  1
  O  O77  1  0.26089773  0.06984515  0.64763133  1
  C  C78  1  0.11091875  0.35191488  0.55102971  1
  H  H79  1  0.17942084  0.03703922  0.57306184  1
  C  C80  1  0.01968816  0.22360780  0.68799879  1
  C  C81  1  0.31501674  0.46029456  0.54522369  1
  C  C82  1  0.34257986  0.42286538  0.73044958  1
  Cu  Cu83  1  0.24237569  0.13244506  0.69229206  1
  Cu  Cu84  1  0.44574326  0.43614158  0.50528616  1
  C  C85  1  0.27410758  0.49549491  0.59278993  1
  C  C86  1  0.06882904  0.18963378  0.71233009  1
  O  O87  1  0.38677602  0.40589805  0.69837670  1
  C  C88  1  0.26742830  0.23447611  0.72313275  1
  O  O89  1  0.44290287  0.01028559  0.69416073  1
  O  O90  1  0.31325553  0.20702448  0.54641628  1
  O  O91  1  0.14827285  0.11993837  0.68427967  1
  O  O92  1  0.35101896  0.10289184  0.60599193  1
  O  O93  1  0.32830703  0.47508306  0.73940571  1
  C  C94  1  0.29764216  0.07588487  0.60040891  1
  C  C95  1  0.10774229  0.15557680  0.66812555  1
  O  O96  1  0.47363091  0.30765663  0.51994563  1
  O  O97  1  0.31825509  0.22896037  0.68752262  1
  O  O98  1  0.09854432  0.40554001  0.56355407  1
  Cu  Cu99  1  0.04064479  0.41870299  0.63379920  1
  O  O100  1  0.11404287  0.42225292  0.68563475  1
  O  O101  1  0.29294041  0.41749009  0.52814967  1
  C  C102  1  0.27636273  0.05550455  0.54008111  1
  O  O103  1  0.08993080  0.15857923  0.61257944  1
  H  H104  1  0.34544533  0.32083389  0.69465079  1
  H  H105  1  0.20216642  0.42810031  0.60231806  1
  C  C106  1  0.21995723  0.46806539  0.61832440  1
  H  H107  1  0.12242357  0.25593314  0.51942719  1
  O  O108  1  0.15710986  0.32779974  0.57060910  1
  Cu  Cu109  1  0.13608675  0.16436397  0.54042896  1
  O  O110  1  0.37087939  0.47848529  0.52445693  1
  C  C111  1  0.13456733  0.46995101  0.70027279  1
  C  C112  1  0.30241910  0.33089942  0.72415113  1
  O  O113  1  0.21045951  0.20319221  0.51250963  1
  C  C114  1  0.06334617  0.32774150  0.50344479  1
  O  O115  1  0.23010123  0.19704400  0.74147515  1
  C  C116  1  0.25627782  0.29140231  0.74225273  1
  H  H117  1  0.00428424  0.22755340  0.63672832  1
  C  C118  1  0.18621529  0.49697299  0.66551319  1
  C  C119  1  0.45810066  0.04134250  0.74299124  1
  O  O120  1  0.10471192  0.49549491  0.74452887  1
  O  O121  1  0.46106740  0.08977540  0.74041054  1
  C  C122  1  0.28772886  0.38452399  0.74495714  1
  O  O123  1  0.35475663  0.42747068  0.90217241  1
  O  O124  1  0.00270506  0.08758906  0.91471933  1
  C  C125  1  0.01906795  0.05439182  0.86968567  1
  O  O126  1  0.47054772  0.47922181  0.86461099  1
  O  O127  1  0.03967574  0.24863404  0.92129611  1
  O  O128  1  0.05462721  0.01491969  0.87658890  1
  C  C129  1  0.05849416  0.21069154  0.88543314  1
  H  H130  1  0.11944769  0.15711714  0.79258213  1
  O  O131  1  0.08951455  0.16965875  0.90155718  1
  O  O132  1  0.13334764  0.41741549  0.86651636  1
  C  C133  1  0.23823141  0.40026409  0.78664041  1
  H  H134  1  0.23425710  0.44223081  0.80356550  1
  C  C135  1  0.04360603  0.21640946  0.81774419  1
  Cu  Cu136  1  0.07260737  0.31892198  0.93714530  1
  C  C137  1  0.46062239  0.01205647  0.80508409  1
  C  C138  1  0.13862063  0.37128131  0.84175970  1
  O  O139  1  0.31559863  0.35127369  0.93840244  1
  Cu  Cu140  1  0.44405523  0.41481897  0.90060788  1
  O  O141  1  0.10091034  0.33106850  0.85708436  1
  Cu  Cu142  1  0.07007763  0.11632186  0.96543665  1
  C  C143  1  0.19561825  0.35820080  0.80315329  1
  C  C144  1  0.33390396  0.39751876  0.94874025  1
  H  H145  1  0.17077824  0.27140938  0.80068305  1
  C  C146  1  0.01311887  0.02610517  0.75733448  1
  C  C147  1  0.07966522  0.18479081  0.77653539  1
  Cu  Cu148  1  0.12460888  0.48906337  0.82612196  1
  C  C149  1  0.47709671  0.04314919  0.85798793  1
  C  C150  1  0.20561842  0.30396909  0.78283616  1
  C  C151  1  0.49183864  0.01622437  0.91322995  1
  H  H152  1  0.48510776  0.08764560  0.85219115  1
  O  O153  1  0.49091138  0.09366008  0.98602288  1
  C  C154  1  0.46499553  0.80278277  0.22149518  1
  C  C155  1  0.15728211  0.63512680  0.05267496  1
  C  C156  1  0.20151299  0.71562529  0.19613875  1
  Cu  Cu157  1  0.39837894  0.65486387  0.16296032  1
  C  C158  1  0.09091243  0.77614962  0.17159030  1
  H  H159  1  0.22197560  0.73146400  0.00111790  1
  O  O160  1  0.30391530  0.67972044  0.16971281  1
  C  C161  1  0.37204138  0.56231199  0.08465103  1
  C  C162  1  0.02256479  0.70805934  0.22782413  1
  H  H163  1  0.26082304  0.76912427  0.14119460  1
  O  O164  1  0.11423039  0.87472074  0.10676881  1
  C  C165  1  0.14401449  0.69596567  0.21844777  1
  O  O166  1  0.24635104  0.96332588  0.12565650  1
  C  C167  1  0.43563689  0.91691427  0.10412169  1
  O  O168  1  0.21780851  0.85758803  0.09274243  1
  O  O169  1  0.41106678  0.83835973  0.04860492  1
  C  C170  1  0.15305128  0.79181585  0.15234817  1
  O  O171  1  0.38309836  0.58161076  0.14120774  1
  Cu  Cu172  1  0.24150295  0.92153597  0.05056464  1
  C  C173  1  0.21130144  0.76063095  0.16003625  1
  C  C174  1  0.08649333  0.72714631  0.20570270  1
  O  O175  1  0.14366708  0.67748914  0.07630391  1
  H  H176  1  0.39074787  0.86326343  0.24139552  1
  C  C177  1  0.26473186  0.68584826  0.21324610  1
  C  C178  1  0.37028398  0.92918652  0.11375522  1
  C  C179  1  0.16000008  0.84614989  0.11680583  1
  O  O180  1  0.43648411  0.71986374  0.17792677  1
  H  H181  1  0.33294182  0.89804520  0.10606315  1
  O  O182  1  0.13572858  0.58745192  0.07090909  1
  C  C183  1  0.45694043  0.86491355  0.07443881  1
  H  H184  1  0.04853918  0.80236883  0.16355653  1
  C  C185  1  0.44196153  0.85225194  0.24512286  1
  O  O186  1  0.37971797  0.58761982  0.03862808  1
  Cu  Cu187  1  0.05938960  0.55354859  0.05791861  1
  C  C188  1  0.41405261  0.76211385  0.20631671  1
  O  O189  1  0.35974125  0.76621527  0.23194127  1
  C  C190  1  0.48706828  0.95314424  0.12090586  1
  C  C191  1  0.35573820  0.98426417  0.13042992  1
  H  H192  1  0.13942976  0.65292513  0.24063546  1
  C  C193  1  0.35291850  0.50111731  0.08169156  1
  O  O194  1  0.00947649  0.66242769  0.24984434  1
  H  H195  1  0.14101174  0.77201045  0.30937846  1
  O  O196  1  0.28320085  0.67943507  0.26799222  1
  C  C197  1  0.44155966  0.78969416  0.37523884  1
  C  C198  1  0.37576331  0.55192239  0.39808983  1
  H  H199  1  0.42066146  0.55650312  0.42641845  1
  H  H200  1  0.23794649  0.62258063  0.34743385  1
  O  O201  1  0.02668363  0.56018188  0.42358681  1
  Cu  Cu202  1  0.09276398  0.57120709  0.36321696  1
  C  C203  1  0.46350773  0.83234515  0.41997408  1
  C  C204  1  0.11789055  0.68540010  0.37608186  1
  C  C205  1  0.22220323  0.86484275  0.32467686  1
  C  C206  1  0.27517529  0.58918431  0.35187467  1
  C  C207  1  0.33397591  0.59623630  0.38615534  1
  C  C208  1  0.16622805  0.72742060  0.39246094  1
  O  O209  1  0.38496762  0.78774572  0.35380861  1
  O  O210  1  0.06518658  0.69607698  0.34743099  1
  C  C211  1  0.35509830  0.65058228  0.41048247  1
  C  C212  1  0.17232130  0.77242611  0.35381161  1
  H  H213  1  0.36378309  0.84493019  0.45453471  1
  Cu  Cu214  1  0.48690785  0.69198335  0.42290795  1
  C  C215  1  0.19919349  0.52858336  0.29887385  1
  O  O216  1  0.48273512  0.75202120  0.36227461  1
  C  C217  1  0.21096912  0.81815072  0.37019436  1
  O  O218  1  0.19656373  0.86354900  0.27529987  1
  O  O219  1  0.12719631  0.63771769  0.39815404  1
  O  O220  1  0.15869697  0.56958086  0.30076097  1
  O  O221  1  0.26312903  0.90522295  0.34406010  1
  C  C222  1  0.24162562  0.81921856  0.42829358  1
  Cu  Cu223  1  0.33651580  0.73212103  0.31301526  1
  C  C224  1  0.46796202  0.94586658  0.28895782  1
  O  O225  1  0.32307198  0.69068237  0.39203250  1
  C  C226  1  0.23765346  0.77050094  0.46362868  1
  O  O227  1  0.11131560  0.96302377  0.42302631  1
  C  C228  1  0.41634295  0.85621974  0.45738126  1
  C  C229  1  0.20432069  0.72267802  0.44523300  1
  Cu  Cu230  1  0.33320865  0.93767588  0.30440989  1
  O  O231  1  0.40565752  0.65640812  0.44504638  1
  H  H232  1  0.27184280  0.85486513  0.44483418  1
  C  C233  1  0.48860869  0.89008606  0.26840971  1
  H  H234  1  0.22540000  0.98535369  0.38304378  1
  C  C235  1  0.26585947  0.53788639  0.32712508  1
  C  C236  1  0.12263282  0.98634799  0.46968851  1
  H  H237  1  0.20607107  0.68271450  0.46902669  1
  C  C238  1  0.35982623  0.50296954  0.36888074  1
  O  O239  1  0.41264923  0.95815809  0.27007766  1
  O  O240  1  0.05030357  0.96162704  0.65865248  1
  C  C241  1  0.44149244  0.71346809  0.71168578  1
  O  O242  1  0.33015729  0.91407314  0.53234963  1
  O  O243  1  0.40533792  0.74027474  0.67681242  1
  C  C244  1  0.27692972  0.76608222  0.51849799  1
  H  H245  1  0.14778466  0.88690099  0.70220977  1
  H  H246  1  0.17414516  0.57359758  0.71696355  1
  O  O247  1  0.30911977  0.80874629  0.53667456  1
  O  O248  1  0.40783627  0.95573211  0.58356819  1
  O  O249  1  0.24471255  0.66444040  0.70208483  1
  C  C250  1  0.27433350  0.63548232  0.66742368  1
  C  C251  1  0.49561509  0.67834553  0.68596966  1
  C  C252  1  0.20187471  0.55241111  0.68023828  1
  O  O253  1  0.33127965  0.93871409  0.69424208  1
  O  O254  1  0.24310354  0.91350720  0.64205976  1
  C  C255  1  0.29157290  0.54892119  0.60865619  1
  O  O256  1  0.32856041  0.64899909  0.63743794  1
  O  O257  1  0.27930073  0.72342481  0.55210105  1
  Cu  Cu258  1  0.28058042  0.86408067  0.58399352  1
  C  C259  1  0.27219896  0.91973832  0.69342209  1
  C  C260  1  0.25577062  0.57750518  0.65486796  1
  Cu  Cu261  1  0.34579504  0.72133524  0.61325944  1
  H  H262  1  0.33821082  0.56553172  0.59024153  1
  C  C263  1  0.39053864  0.92389582  0.54064143  1
  H  H264  1  0.47933204  0.71378600  0.59305875  1
  Cu  Cu265  1  0.00328524  0.95533929  0.52070354  1
  C  C266  1  0.17429464  0.88934981  0.74899734  1
  O  O267  1  0.08094050  0.99192981  0.51610568  1
  Cu  Cu268  1  0.36504275  0.99652996  0.64779259  1
  C  C269  1  0.00325818  0.98941202  0.64703689  1
  C  C270  1  0.43813294  0.89415656  0.50162776  1
  O  O271  1  0.32685283  0.93211254  0.92724697  1
  C  C272  1  0.17692263  0.88500797  0.86257971  1
  C  C273  1  0.26744382  0.68999168  0.92230671  1
  C  C274  1  0.45369158  0.52663691  0.88457641  1
  O  O275  1  0.31734187  0.77437291  0.94423593  1
  C  C276  1  0.49197656  0.61174576  0.93791376  1
  C  C277  1  0.22554913  0.69366980  0.97439495  1
  C  C278  1  0.27781071  0.90779555  0.92560689  1
  C  C279  1  0.23478020  0.59832036  0.89775030  1
  C  C280  1  0.20105298  0.59784647  0.95455226  1
  O  O281  1  0.45421150  0.84913245  0.92180434  1
  C  C282  1  0.19793907  0.64327164  0.99312267  1
  O  O283  1  0.06879380  0.52993475  0.88934116  1
  H  H284  1  0.44500100  0.93353397  0.76039146  1
  O  O285  1  0.25047407  0.89027050  0.97750057  1
  C  C286  1  0.23617400  0.55022293  0.85632442  1
  C  C287  1  0.45452283  0.95550233  0.80443838  1
  C  C288  1  0.31713983  0.73202976  0.91112984  1
  Cu  Cu289  1  0.41370362  0.76628764  0.82518362  1
  H  H290  1  0.32580449  0.93162820  0.80546252  1
  C  C291  1  0.07577776  0.85631557  0.80394119  1
  O  O292  1  0.36377600  0.72071430  0.87555208  1
  H  H293  1  0.17167135  0.56341872  0.96993604  1
  H  H294  1  0.14917567  0.87472483  0.90702365  1
  H  H295  1  0.30799879  0.64516515  0.84477530  1
  C  C296  1  0.27301942  0.64375568  0.88270368  1
  O  O297  1  0.43310729  0.70946190  0.77074447  1
  C  C298  1  0.14536243  0.87488566  0.80541347  1
  O  O299  1  0.27996913  0.54942290  0.81413442  1
  O  O300  1  0.04993349  0.84302249  0.85911129  1
  C  C301  1  0.27528508  0.91168730  0.80791832  1
  O  O302  1  0.42630865  0.84505587  0.82331887  1
  H  H303  1  0.44314497  0.62807893  0.93903646  1
  Cu  Cu304  1  0.35600364  0.50577039  0.81510856  1
  C  C305  1  0.24185554  0.90153267  0.86381804  1
  C  C306  1  0.44827889  0.87339500  0.86939897  1
  O  O307  1  0.39739150  0.54440059  0.87633907  1
  C  C308  1  0.46457726  0.93090099  0.86286214  1
  Cu  Cu309  1  0.38313647  0.82583103  0.96450398  1
  C  C310  1  0.48009790  0.96072332  0.91782793  1
  O  O311  1  0.19774114  0.51310633  0.87110690  1
  C  C312  1  0.04033475  0.51106706  0.93642014  1
  O  O313  1  0.07197220  0.50675657  0.98718789  1
  C  C314  1  0.24163041  0.90481638  0.75221250  1
  O  O315  1  0.47649176  0.71508757  0.98764851  1
  H  H316  1  0.48825219  0.93802391  0.96150794  1
  H  H317  1  0.05459854  0.99871730  0.76312093  1
  H  H318  1  0.35306206  0.50548002  0.97961727  1
  O  O319  1  0.04932583  0.84941220  0.75510415  1
  C  C320  1  0.60252735  0.32175419  0.16136626  1
  O  O321  1  0.84797905  0.31608766  0.23913437  1
  O  O322  1  0.86170371  0.39065790  0.03635872  1
  O  O323  1  0.94498990  0.42219960  0.23465815  1
  O  O324  1  0.76157879  0.33443192  0.09401463  1
  O  O325  1  0.89570095  0.44046730  0.14622332  1
  H  H326  1  0.74970681  0.25355283  0.15709162  1
  H  H327  1  0.56877324  0.25044331  0.01838002  1
  C  C328  1  0.50606525  0.29718709  0.22972430  1
  O  O329  1  0.68191306  0.39587844  0.08890397  1
  C  C330  1  0.70227130  0.17656210  0.23191859  1
  O  O331  1  0.79546989  0.38483142  0.19585773  1
  O  O332  1  0.57617560  0.02887849  0.16500054  1
  C  C333  1  0.59845639  0.23422576  0.22010109  1
  C  C334  1  0.69730579  0.26255310  0.16869517  1
  C  C335  1  0.90469853  0.45126874  0.20216466  1
  C  C336  1  0.52221732  0.04499534  0.15476861  1
  C  C337  1  0.70422214  0.34910532  0.10564992  1
  C  C338  1  0.66364349  0.22433016  0.20716514  1
  H  H339  1  0.57475473  0.35744880  0.14341226  1
  Cu  Cu340  1  0.83116464  0.38722539  0.12019447  1
  C  C341  1  0.86265068  0.49269621  0.23295240  1
  C  C342  1  0.66770221  0.31038798  0.14719652  1
  O  O343  1  0.75851876  0.17264542  0.22078084  1
  C  C344  1  0.57070542  0.28466983  0.20094405  1
  O  O345  1  0.60029056  0.15041114  0.03657310  1
  O  O346  1  0.52324053  0.35340561  0.01319665  1
  Cu  Cu347  1  0.51666967  0.12224423  0.06347544  1
  C  C348  1  0.79747674  0.34481023  0.23456915  1
  O  O349  1  0.50473380  0.09523073  0.14404582  1
  H  H350  1  0.69456091  0.42011788  0.23849842  1
  Cu  Cu351  1  0.69147655  0.43017090  0.01094921  1
  H  H352  1  0.95522150  0.44730376  0.01210448  1
  C  C353  1  0.62533314  0.33163059  0.35027049  1
  H  H354  1  0.89717273  0.47465376  0.32579169  1
  O  O355  1  0.70608138  0.20344650  0.37543356  1
  O  O356  1  0.90033244  0.32896665  0.35253903  1
  H  H357  1  0.57983509  0.32840631  0.38049271  1
  C  C358  1  0.67576361  0.29302348  0.35336146  1
  C  C359  1  0.66216834  0.24108194  0.38272434  1
  H  H360  1  0.96830566  0.24488641  0.38074691  1
  C  C361  1  0.97860425  0.32680013  0.43098772  1
  O  O362  1  0.60384151  0.22860924  0.40028001  1
  O  O363  1  0.90645818  0.40300766  0.41042320  1
  Cu  Cu364  1  0.53175938  0.24272520  0.34184770  1
  C  C365  1  0.92695173  0.35518714  0.39464992  1
  Cu  Cu366  1  0.83321350  0.42150219  0.45766795  1
  O  O367  1  0.68949480  0.05381563  0.34062303  1
  C  C368  1  0.86168530  0.49603876  0.29793339  1
  C  C369  1  0.73080957  0.29842365  0.31507393  1
  O  O370  1  0.57048934  0.44728075  0.25958687  1
  C  C371  1  0.63265502  0.37478279  0.30685083  1
  C  C372  1  0.57358906  0.40952216  0.29696755  1
  Cu  Cu373  1  0.92424168  0.34905588  0.26740792  1
  O  O374  1  0.51854357  0.39114174  0.32372483  1
  Cu  Cu375  1  0.69587968  0.12989418  0.35180658  1
  O  O376  1  0.68488667  0.03773877  0.44100708  1
  H  H377  1  0.76473253  0.26524663  0.31344057  1
  C  C378  1  0.68918507  0.38359653  0.27182995  1
  C  C379  1  0.70624773  0.02698126  0.39072363  1
  C  C380  1  0.73993158  0.34428319  0.27726262  1
  O  O381  1  0.83921571  0.49293460  0.42723588  1
  C  C382  1  0.99451956  0.27243604  0.41631644  1
  H  H383  1  0.99969350  0.40039630  0.48610168  1
  O  O384  1  0.67141373  0.14173683  0.26994273  1
  H  H385  1  0.57150792  0.20223882  0.25013968  1
  C  C386  1  0.65967234  0.17040719  0.57571257  1
  C  C387  1  0.98320121  0.02838985  0.70071661  1
  O  O388  1  0.81793490  0.13378694  0.67810525  1
  H  H389  1  0.75273860  0.24289928  0.55867030  1
  C  C390  1  0.76787545  0.34353410  0.51698245  1
  O  O391  1  0.71755795  0.15458870  0.59490432  1
  Cu  Cu392  1  0.86361392  0.32512556  0.60019614  1
  C  C393  1  0.91106410  0.43538080  0.58443643  1
  O  O394  1  0.86703196  0.40614592  0.60779299  1
  Cu  Cu395  1  0.73916992  0.09806410  0.65190704  1
  C  C396  1  0.93189406  0.06488433  0.68752001  1
  O  O397  1  0.61548747  0.13895143  0.57377434  1
  C  C398  1  0.70317132  0.31843892  0.52828092  1
  C  C399  1  0.59074218  0.25477526  0.54861481  1
  C  C400  1  0.70623316  0.26349443  0.55082730  1
  C  C401  1  0.98184582  0.24956388  0.73316078  1
  O  O402  1  0.96887530  0.41661783  0.58090647  1
  C  C403  1  0.65195165  0.23116148  0.55908996  1
  H  H404  1  0.91258881  0.07301255  0.63915749  1
  C  C405  1  0.92154348  0.27574810  0.70955389  1
  C  C406  1  0.84939046  0.13023389  0.72776553  1
  O  O407  1  0.82022540  0.31763066  0.52865076  1
  H  H408  1  0.54591375  0.23249386  0.55195019  1
  H  H409  1  0.99026768  0.49526969  0.50517737  1
  O  O410  1  0.74229624  0.03979365  0.70587067  1
  O  O411  1  0.91485038  0.27820054  0.65127396  1
  C  C412  1  0.58840992  0.30901396  0.52913100  1
  C  C413  1  0.90762686  0.09482076  0.73756235  1
  C  C414  1  0.64188061  0.34264980  0.51732489  1
  C  C415  1  0.89699429  0.49010068  0.55743345  1
  O  O416  1  0.87605299  0.28720492  0.74600749  1
  C  C417  1  0.52108845  0.33534260  0.51585982  1
  O  O418  1  0.52078276  0.38709253  0.50042920  1
  H  H419  1  0.63338269  0.38508105  0.50488027  1
  O  O420  1  0.76708761  0.39336343  0.50097185  1
  C  C421  1  0.67889864  0.27116844  0.80096045  1
  C  C422  1  0.83565529  0.47385841  0.89988180  1
  C  C423  1  0.93155106  0.09203068  0.79869210  1
  H  H424  1  0.67928431  0.17767552  0.87011995  1
  H  H425  1  0.74341724  0.03125467  0.82063967  1
  C  C426  1  0.98486115  0.05794807  0.80700553  1
  C  C427  1  0.64993436  0.26248320  0.86404695  1
  C  C428  1  0.86890265  0.45149473  0.95170606  1
  C  C429  1  0.65444689  0.21168789  0.89353735  1
  O  O430  1  0.68413789  0.48087441  0.94787217  1
  C  C431  1  0.54104211  0.35098929  0.96073990  1
  O  O432  1  0.73651933  0.02585366  0.94201329  1
  C  C433  1  0.61268292  0.30924525  0.88295674  1
  H  H434  1  0.91429819  0.11809757  0.83694401  1
  O  O435  1  0.77459989  0.40475307  0.97710744  1
  C  C436  1  0.97111530  0.49490406  0.92782492  1
  H  H437  1  0.96004680  0.27035424  0.83356693  1
  H  H438  1  0.60444484  0.34382128  0.85136377  1
  C  C439  1  0.51050598  0.04605539  0.96846822  1
  O  O440  1  0.52739487  0.39145885  0.91939532  1
  C  C441  1  0.62309160  0.20858020  0.95073429  1
  O  O442  1  0.72090437  0.23264607  0.78431426  1
  C  C443  1  0.58303744  0.30356917  0.94052381  1
  H  H444  1  0.78496643  0.46288908  0.89142685  1
  Cu  Cu445  1  0.81073183  0.23459825  0.76464580  1
  C  C446  1  0.93306081  0.46318303  0.96825045  1
  O  O447  1  0.83034802  0.15969454  0.77409730  1
  H  H448  1  0.57660075  0.49621809  0.90613647  1
  C  C449  1  0.62430737  0.15437507  0.98401457  1
  C  C450  1  0.99253692  0.24857758  0.79848923  1
  Cu  Cu451  1  0.65012772  0.03117811  0.97005372  1
  O  O452  1  0.67880676  0.31340112  0.77184180  1
  C  C453  1  0.83273116  0.41322679  0.99070697  1
  C  C454  1  0.59171117  0.25516686  0.97450283  1
  O  O455  1  0.64871458  0.11289718  0.95637167  1
  O  O456  1  0.55923617  0.02457558  0.99451782  1
  Cu  Cu457  1  0.55610902  0.78833994  0.04052760  1
  C  C458  1  0.73446438  0.59711562  0.18468720  1
  O  O459  1  0.80413680  0.82219717  0.17907275  1
  H  H460  1  0.88326714  0.82610671  0.10232246  1
  O  O461  1  0.69045874  0.63006322  0.21180508  1
  H  H462  1  0.54334122  0.74869009  0.20497834  1
  O  O463  1  0.79309972  0.74284813  0.22341943  1
  O  O464  1  0.92672629  0.58156143  0.12851724  1
  C  C465  1  0.82214506  0.52365906  0.19291286  1
  C  C466  1  0.86743588  0.74560995  0.14065827  1
  O  O467  1  0.97646392  0.74227060  0.21858840  1
  Cu  Cu468  1  0.76598269  0.87603112  0.23172937  1
  C  C469  1  0.77728367  0.55851659  0.22115013  1
  H  H470  1  0.85435668  0.65839004  0.16549144  1
  C  C471  1  0.82268422  0.77259416  0.18647900  1
  C  C472  1  0.88066747  0.68986160  0.13698116  1
  H  H473  1  0.82623490  0.51824419  0.14286725  1
  C  C474  1  0.92558390  0.67245219  0.08912326  1
  C  C475  1  0.94516445  0.61216362  0.08836376  1
  C  C476  1  0.93452830  0.76279639  0.05011195  1
  C  C477  1  0.89471179  0.78254611  0.09799337  1
  O  O478  1  0.62435546  0.82669536  0.00006300  1
  O  O479  1  0.66301203  0.76963221  0.20775544  1
  O  O480  1  0.74419517  0.60220694  0.12964770  1
  C  C481  1  0.95151495  0.70641642  0.04519916  1
  H  H482  1  0.53952442  0.94358342  0.11421996  1
  C  C483  1  0.53081947  0.78998570  0.22051055  1
  C  C484  1  0.57574969  0.82731292  0.24749337  1
  O  O485  1  0.51723058  0.85511052  0.06571139  1
  O  O486  1  0.57812749  0.72406525  0.01460270  1
  O  O487  1  0.98606729  0.59639336  0.04508327  1
  C  C488  1  0.64476370  0.81210495  0.23671775  1
  O  O489  1  0.84792303  0.91419668  0.23551003  1
  Cu  Cu490  1  0.70487426  0.70442807  0.23493069  1
  O  O491  1  0.94731402  0.85509443  0.01207317  1
  C  C492  1  0.95448729  0.80685153  0.00330879  1
  H  H493  1  0.98711167  0.69444927  0.01012387  1
  O  O494  1  0.73741922  0.68530801  0.31243423  1
  H  H495  1  0.78045702  0.97951921  0.29200535  1
  C  C496  1  0.93235864  0.78664033  0.39434938  1
  H  H497  1  0.91904642  0.89387650  0.40775897  1
  C  C498  1  0.76733775  0.56004881  0.28554052  1
  C  C499  1  0.87634184  0.90895088  0.28923402  1
  H  H500  1  0.73249107  0.58651750  0.30954949  1
  C  C501  1  0.87918022  0.92166123  0.40284377  1
  O  O502  1  0.75478474  0.54674866  0.41089976  1
  C  C503  1  0.52997860  0.84680248  0.42210973  1
  C  C504  1  0.75761993  0.74071901  0.40062568  1
  C  C505  1  0.81046836  0.52934217  0.32132662  1
  C  C506  1  0.84484108  0.79822932  0.47137706  1
  C  C507  1  0.81995219  0.74563559  0.37526251  1
  O  O508  1  0.92383310  0.87636808  0.29594242  1
  H  H509  1  0.58924117  0.90693621  0.29242518  1
  O  O510  1  0.95128184  0.77336524  0.33867213  1
  C  C511  1  0.79639041  0.96905906  0.33978948  1
  Cu  Cu512  1  0.68962332  0.65052593  0.46507659  1
  C  C513  1  0.54965504  0.88207802  0.46945865  1
  H  H514  1  0.83247191  0.72690026  0.33019849  1
  C  C515  1  0.71649710  0.70187181  0.36456100  1
  C  C516  1  0.86248314  0.77478873  0.41379811  1
  H  H517  1  0.68632892  0.75791167  0.47562804  1
  H  H518  1  0.85915363  0.63040618  0.47669214  1
  C  C519  1  0.85058914  0.93412607  0.34540749  1
  O  O520  1  0.66274405  0.89052936  0.43656311  1
  C  C521  1  0.80220092  0.52330417  0.39064797  1
  C  C522  1  0.79483249  0.97857689  0.45005196  1
  C  C523  1  0.84884797  0.94317422  0.45682659  1
  H  H524  1  0.56581207  0.82508832  0.39004332  1
  C  C525  1  0.97457385  0.58799638  0.43913248  1
  O  O526  1  0.66875042  0.67954322  0.39097965  1
  C  C527  1  0.73609728  0.76327720  0.45869988  1
  C  C528  1  0.76456219  0.98879627  0.39325426  1
  O  O529  1  0.97007890  0.81263144  0.42816651  1
  C  C530  1  0.62201002  0.89790503  0.47475557  1
  O  O531  1  0.96235672  0.63346224  0.41703133  1
  H  H532  1  0.76560577  0.99539626  0.48936154  1
  C  C533  1  0.55509788  0.87609564  0.27437525  1
  C  C534  1  0.92988567  0.56390326  0.48556056  1
  Cu  Cu535  1  0.94994555  0.80890229  0.25896653  1
  C  C536  1  0.78189965  0.78938523  0.49461394  1
  O  O537  1  0.68664857  0.84551785  0.25705300  1
  Cu  Cu538  1  0.98982577  0.65393819  0.33835269  1
  O  O539  1  0.50158343  0.97954719  0.31942545  1
  H  H540  1  0.88241487  0.81898348  0.49980548  1
  O  O541  1  0.53791429  0.69958842  0.49633526  1
  O  O542  1  0.61036661  0.62864979  0.49976981  1
  Cu  Cu543  1  0.66908181  0.87394350  0.59550620  1
  C  C544  1  0.55877773  0.65526609  0.59106433  1
  H  H545  1  0.51956883  0.93846728  0.54588093  1
  O  O546  1  0.62988019  0.84751699  0.66921857  1
  C  C547  1  0.87485138  0.93332590  0.51858649  1
  H  H548  1  0.63152801  0.58875434  0.60663278  1
  C  C549  1  0.57184802  0.66345767  0.52514342  1
  O  O550  1  0.97574975  0.99359289  0.59504377  1
  C  C551  1  0.50741446  0.68423298  0.62113888  1
  C  C552  1  0.58175848  0.61379422  0.69095115  1
  O  O553  1  0.70604121  0.80821714  0.57320442  1
  C  C554  1  0.82818054  0.56702765  0.54155248  1
  C  C555  1  0.76166658  0.59158857  0.55528406  1
  O  O556  1  0.75476091  0.96725340  0.64593859  1
  C  C557  1  0.76584068  0.81210105  0.55785839  1
  O  O558  1  0.80981886  0.83297040  0.58998929  1
  O  O559  1  0.63925305  0.91619264  0.53248916  1
  C  C560  1  0.83827997  0.51670056  0.57068389  1
  C  C561  1  0.59543201  0.61729687  0.62786426  1
  H  H562  1  0.80133281  0.50284330  0.60489677  1
  Cu  Cu563  1  0.79209311  0.90326269  0.61819878  1
  C  C564  1  0.94169700  0.51441785  0.51587282  1
  O  O565  1  0.72015463  0.56858215  0.58614897  1
  O  O566  1  0.84316809  0.94751014  0.56584362  1
  C  C567  1  0.61516650  0.87330811  0.72348954  1
  H  H568  1  0.81424800  0.89102837  0.71413082  1
  O  O569  1  0.74936751  0.63908603  0.53054584  1
  O  O570  1  0.59247301  0.91792636  0.72399863  1
  C  C571  1  0.75862178  0.98995088  0.69831503  1
  C  C572  1  0.53224784  0.64356952  0.72216171  1
  C  C573  1  0.50474640  0.90630257  0.50921343  1
  O  O574  1  0.93243268  0.91095698  0.51999879  1
  H  H575  1  0.66787027  0.76548477  0.72219573  1
  O  O576  1  0.67854472  0.56240400  0.72146464  1
  C  C577  1  0.87282211  0.59241765  0.50039440  1
  C  C578  1  0.61757489  0.57171157  0.73242656  1
  H  H579  1  0.59229026  0.90272568  0.83486047  1
  O  O580  1  0.59123721  0.55480092  0.77764551  1
  C  C581  1  0.56788165  0.53483233  0.92679558  1
  H  H582  1  0.66491115  0.75477000  0.92651495  1
  C  C583  1  0.54650142  0.63703194  0.96623090  1
  O  O584  1  0.78788141  0.53293675  0.78916114  1
  C  C585  1  0.81984003  0.88337514  0.81346087  1
  C  C586  1  0.62039389  0.85825538  0.94844187  1
  H  H587  1  0.83077885  0.88569259  0.91611723  1
  O  O588  1  0.72229516  0.68205774  0.87617915  1
  C  C589  1  0.70129282  0.69884191  0.82772336  1
  O  O590  1  0.79587797  0.95702889  0.97689386  1
  C  C591  1  0.94147658  0.51682629  0.87466596  1
  C  C592  1  0.77896882  0.95741852  0.86965055  1
  C  C593  1  0.65711485  0.77926320  0.88356551  1
  C  C594  1  0.81454230  0.90774729  0.87115729  1
  C  C595  1  0.67398161  0.75609195  0.82556178  1
  H  H596  1  0.52573849  0.64293130  0.77154717  1
  C  C597  1  0.76859406  0.98152061  0.93416609  1
  C  C598  1  0.63211324  0.83176440  0.88716521  1
  C  C599  1  0.85718350  0.83006639  0.81427924  1
  O  O600  1  0.88086407  0.81702069  0.87050074  1
  H  H601  1  0.97140797  0.54615636  0.84408551  1
  C  C602  1  0.66380439  0.78506942  0.77038831  1
  Cu  Cu603  1  0.96647710  0.82577310  0.87467559  1
  C  C604  1  0.61603749  0.86159192  0.83277896  1
  C  C605  1  0.79797133  0.90867119  0.75759300  1
  O  O606  1  0.70345528  0.66980298  0.77598149  1
  C  C607  1  0.63452921  0.83730394  0.77750208  1
  C  C608  1  0.87672145  0.50360906  0.86095517  1
  O  O609  1  0.60082456  0.90425164  0.94927749  1
  Cu  Cu610  1  0.73895288  0.59733362  0.77530132  1
  C  C611  1  0.85008373  0.52558596  0.79961422  1
  C  C612  1  0.68644483  0.53677483  0.95366132  1
  C  C613  1  0.76167898  0.98644536  0.81604147  1
  C  C614  1  0.62032837  0.56446989  0.95113868  1
  O  O615  1  0.98341359  0.78978094  0.95186817  1
  C  C616  1  0.77286870  0.96212920  0.75816531  1
  H  H617  1  0.64499791  0.64943920  0.99042053  1
  O  O618  1  0.87054459  0.80482935  0.76846186  1
  C  C619  1  0.50535561  0.55798963  0.91807726  1
  O  O620  1  0.73435513  0.55819357  0.97160283  1
  C  C621  1  0.53063836  0.69421967  0.99123554  1
  C  C622  1  0.60936427  0.61782324  0.97290773  1
  O  O623  1  0.89009707  0.54787208  0.76454543  1
