# generated using pymatgen
data_CuH2(C3O2)2
_symmetry_space_group_name_H-M   'P 1'
_cell_length_a   23.09218266
_cell_length_b   20.03197007
_cell_length_c   23.98127747
_cell_angle_alpha   90.00000000
_cell_angle_beta   90.00000000
_cell_angle_gamma   90.00000000
_symmetry_Int_Tables_number   1
_chemical_formula_structural   CuH2(C3O2)2
_chemical_formula_sum   'Cu48 H96 C288 O192'
_cell_volume   11093.30518477
_cell_formula_units_Z   48
loop_
 _symmetry_equiv_pos_site_id
 _symmetry_equiv_pos_as_xyz
  1  'x, y, z'
loop_
 _atom_site_type_symbol
 _atom_site_label
 _atom_site_symmetry_multiplicity
 _atom_site_fract_x
 _atom_site_fract_y
 _atom_site_fract_z
 _atom_site_occupancy
  C  C0  1  0.43156872  0.45575012  0.21981857  1
  O  O1  1  0.31540861  0.35515445  0.21473989  1
  C  C2  1  0.21421126  0.17122366  0.07299603  1
  C  C3  1  0.20155352  0.20687532  0.12057313  1
  C  C4  1  0.46046384  0.31470994  0.06539400  1
  C  C5  1  0.21125932  0.27315926  0.12974334  1
  C  C6  1  0.17685708  0.16383741  0.16808748  1
  O  O7  1  0.43340088  0.33577517  0.10334378  1
  C  C8  1  0.48170118  0.47562029  0.18513322  1
  C  C9  1  0.25497257  0.37341484  0.08590892  1
  O  O10  1  0.24685409  0.40459012  0.13243565  1
  C  C11  1  0.23775452  0.30552400  0.08317840  1
  H  H12  1  0.20264682  0.29952228  0.17154323  1
  Cu  Cu13  1  0.31033965  0.43534022  0.17418088  1
  H  H14  1  0.21449335  0.49971023  0.18278324  1
  O  O15  1  0.16268737  0.10702808  0.16428976  1
  H  H16  1  0.20873978  0.11820576  0.07044783  1
  O  O17  1  0.17105706  0.19567844  0.21431380  1
  C  C18  1  0.23896579  0.20674720  0.02765921  1
  H  H19  1  0.39161131  0.41875291  0.03753130  1
  O  O20  1  0.27962343  0.40627160  0.04606143  1
  O  O21  1  0.37942389  0.47498993  0.21592924  1
  C  C22  1  0.25084190  0.27459545  0.03302025  1
  O  O23  1  0.44071922  0.12420956  0.01216203  1
  O  O24  1  0.23428939  0.30439041  0.24624745  1
  O  O25  1  0.12559149  0.45160457  0.24640218  1
  Cu  Cu26  1  0.26144331  0.48996786  0.01619883  1
  C  C27  1  0.45093406  0.33948862  0.00505849  1
  C  C28  1  0.41233793  0.39079099  0.00299952  1
  H  H29  1  0.38508832  0.36832563  0.29563307  1
  C  C30  1  0.03402561  0.39633370  0.43396544  1
  C  C31  1  0.31198571  0.38507148  0.42270703  1
  C  C32  1  0.41140394  0.40603515  0.40713989  1
  H  H33  1  0.20569705  0.34240831  0.33206320  1
  C  C34  1  0.25544946  0.37573424  0.40232675  1
  C  C35  1  0.29387782  0.35910402  0.30982593  1
  O  O36  1  0.15528868  0.37833208  0.42530446  1
  C  C37  1  0.26308891  0.09335579  0.31878025  1
  O  O38  1  0.41752034  0.42098903  0.45796777  1
  O  O39  1  0.22031372  0.37520536  0.49287771  1
  O  O40  1  0.05048558  0.42422520  0.38873699  1
  Cu  Cu41  1  0.49275125  0.44175859  0.48328589  1
  O  O42  1  0.05147109  0.41511567  0.47810125  1
  H  H43  1  0.32318140  0.40174233  0.46419094  1
  C  C44  1  0.24701517  0.35632291  0.34746494  1
  H  H45  1  0.26991059  0.13863421  0.43162202  1
  C  C46  1  0.26512575  0.08474296  0.42481328  1
  C  C47  1  0.20776227  0.37995277  0.44162716  1
  C  C48  1  0.34919974  0.37576509  0.32616554  1
  O  O49  1  0.45289098  0.40105815  0.37395727  1
  C  C50  1  0.26026035  0.04154985  0.47108641  1
  C  C51  1  0.26016260  0.05416555  0.37309060  1
  C  C52  1  0.35583998  0.39135795  0.38255332  1
  Cu  Cu53  1  0.12842061  0.44669415  0.37491506  1
  O  O54  1  0.26609110  0.15809082  0.32032488  1
  Cu  Cu55  1  0.47996903  0.46469442  0.31847176  1
  O  O56  1  0.25904304  0.06386073  0.27534483  1
  O  O57  1  0.43855267  0.09984618  0.47723441  1
  O  O58  1  0.48935359  0.21483057  0.44473388  1
  C  C59  1  0.28153549  0.33789131  0.25377787  1
  Cu  Cu60  1  0.23525368  0.21307992  0.26461748  1
  O  O61  1  0.44763589  0.41691533  0.25797227  1
  C  C62  1  0.17327927  0.27674641  0.63939742  1
  H  H63  1  0.13588906  0.19333834  0.59725139  1
  H  H64  1  0.34944314  0.47360203  0.73510936  1
  C  C65  1  0.42110667  0.07504524  0.52375399  1
  C  C66  1  0.16360080  0.20916188  0.63177210  1
  C  C67  1  0.13811393  0.32467130  0.60203039  1
  C  C68  1  0.38316695  0.26645365  0.61850733  1
  Cu  Cu69  1  0.20865914  0.43218606  0.55675559  1
  H  H70  1  0.41709661  0.17469095  0.68684820  1
  C  C71  1  0.36176815  0.48177638  0.64275981  1
  O  O72  1  0.31992945  0.02770727  0.72296219  1
  C  C73  1  0.19151920  0.16260153  0.66695848  1
  C  C74  1  0.47029767  0.34017867  0.62088453  1
  O  O75  1  0.28828765  0.44044292  0.57953053  1
  C  C76  1  0.43983603  0.13866961  0.71512700  1
  H  H77  1  0.38651623  0.47917038  0.55691582  1
  O  O78  1  0.28458844  0.42031063  0.67077343  1
  C  C79  1  0.30691966  0.44867572  0.62865052  1
  O  O80  1  0.37368207  0.28465546  0.66790342  1
  H  H81  1  0.45998776  0.35739945  0.66295653  1
  Cu  Cu82  1  0.32613015  0.34834318  0.69840397  1
  C  C83  1  0.40701801  0.08445425  0.73226249  1
  C  C84  1  0.26547085  0.06247086  0.52946330  1
  C  C85  1  0.22883271  0.17569296  0.71135842  1
  O  O86  1  0.15164727  0.38841157  0.60546183  1
  O  O87  1  0.41406502  0.11154126  0.56578945  1
  O  O88  1  0.10726566  0.30052475  0.56832004  1
  C  C89  1  0.44883586  0.27173349  0.53996416  1
  C  C90  1  0.35018401  0.07699101  0.70626621  1
  C  C91  1  0.18619846  0.09105299  0.65228810  1
  Cu  Cu92  1  0.33931887  0.13493766  0.59608730  1
  O  O93  1  0.25144647  0.02365907  0.56785053  1
  C  C94  1  0.43581470  0.29454842  0.59354039  1
  O  O95  1  0.33055398  0.11930615  0.67186471  1
  O  O96  1  0.34663757  0.23097638  0.59406744  1
  O  O97  1  0.21036652  0.04907473  0.68271494  1
  C  C98  1  0.23384000  0.24428054  0.71961884  1
  C  C99  1  0.40507409  0.00496027  0.52025930  1
  H  H100  1  0.21248902  0.34760617  0.69035573  1
  C  C101  1  0.20817253  0.29238787  0.68493922  1
  H  H102  1  0.25155518  0.13507802  0.73510158  1
  O  O103  1  0.15336133  0.07606202  0.61176498  1
  O  O104  1  0.28775552  0.12109398  0.53810099  1
  H  H105  1  0.00058218  0.31598433  0.51865014  1
  C  C106  1  0.37657474  0.49024840  0.69882614  1
  C  C107  1  0.39859226  0.49626413  0.59792703  1
  H  H108  1  0.38590252  0.00982034  0.60619477  1
  O  O109  1  0.02037609  0.19192474  0.72230802  1
  C  C110  1  0.49659589  0.13599955  0.73504754  1
  Cu  Cu111  1  0.17285979  0.00933651  0.56364344  1
  H  H112  1  0.42138087  0.23390870  0.51852087  1
  H  H113  1  0.11401217  0.15389055  0.76919917  1
  O  O114  1  0.20363798  0.28727221  0.88080666  1
  C  C115  1  0.09208111  0.11050649  0.78775362  1
  H  H116  1  0.42446083  0.42018506  0.86182159  1
  O  O117  1  0.34717270  0.49219276  0.89445558  1
  O  O118  1  0.19656560  0.04061875  0.88444066  1
  C  C119  1  0.36127556  0.47169705  0.94334107  1
  O  O120  1  0.33867480  0.49842334  0.98588744  1
  C  C121  1  0.04021807  0.43124308  0.84522214  1
  C  C122  1  0.12577640  0.36415420  0.86036352  1
  C  C123  1  0.14820835  0.29991762  0.88279796  1
  O  O124  1  0.11418694  0.25676921  0.89538881  1
  O  O125  1  0.27648748  0.18806643  0.93830077  1
  C  C126  1  0.16362457  0.41373015  0.83976153  1
  Cu  Cu127  1  0.23596299  0.20443879  0.86385497  1
  C  C128  1  0.18145755  0.08130389  0.84570620  1
  O  O129  1  0.03878931  0.48894826  0.96289895  1
  C  C130  1  0.25349105  0.16314011  0.97995018  1
  C  C131  1  0.43153249  0.39472558  0.90124885  1
  C  C132  1  0.48268834  0.03962333  0.79085669  1
  C  C133  1  0.12309916  0.06778045  0.82364180  1
  C  C134  1  0.06578456  0.37106036  0.86104806  1
  H  H135  1  0.26267111  0.30469271  0.99607098  1
  H  H136  1  0.20984816  0.41398487  0.83718275  1
  Cu  Cu137  1  0.26375406  0.04207835  0.93220523  1
  O  O138  1  0.28589999  0.22846342  0.80384347  1
  H  H139  1  0.03950061  0.32625022  0.87535718  1
  C  C140  1  0.39856215  0.41306800  0.94815726  1
  C  C141  1  0.27099484  0.27089413  0.76514066  1
  C  C142  1  0.47065715  0.34357870  0.90783207  1
  O  O143  1  0.21316038  0.12754414  0.82976422  1
  O  O144  1  0.28969479  0.32845448  0.76354335  1
  O  O145  1  0.23372807  0.10450646  0.98214699  1
  C  C146  1  0.03629671  0.00488911  0.83145460  1
  C  C147  1  0.03408228  0.09752827  0.77493166  1
  C  C148  1  0.07508108  0.48571930  0.83061402  1
  C  C149  1  0.13436184  0.47266519  0.82868780  1
  C  C150  1  0.47895918  0.31205356  0.95923069  1
  O  O151  1  0.48025075  0.34402443  0.81312313  1
  C  C152  1  0.42715864  0.03539746  0.77091646  1
  C  C153  1  0.09651316  0.00974511  0.84172354  1
  O  O154  1  0.48058045  0.06490357  0.94482410  1
  C  C155  1  0.48295658  0.10161243  0.98904238  1
  C  C156  1  0.00206202  0.04352424  0.79653500  1
  O  O157  1  0.06465544  0.80023856  0.10462372  1
  C  C158  1  0.12990124  0.69354299  0.04376771  1
  C  C159  1  0.43871918  0.77777410  0.13238732  1
  O  O160  1  0.45653885  0.63681467  0.07913549  1
  O  O161  1  0.34952784  0.73936975  0.10206930  1
  C  C162  1  0.30419384  0.57077407  0.15304585  1
  H  H163  1  0.42568225  0.55741028  0.15084143  1
  C  C164  1  0.39942894  0.75878803  0.08670248  1
  H  H165  1  0.37138523  0.75552433  0.19479839  1
  C  C166  1  0.15085386  0.63410636  0.02034834  1
  O  O167  1  0.33799575  0.61622807  0.13470656  1
  C  C168  1  0.45448795  0.78619835  0.23037370  1
  C  C169  1  0.46839911  0.53043661  0.15044082  1
  H  H170  1  0.31128583  0.67642641  0.22323927  1
  O  O171  1  0.24576618  0.66898354  0.03881912  1
  O  O172  1  0.41678909  0.75027325  0.03816409  1
  Cu  Cu173  1  0.31803615  0.66477037  0.06774913  1
  C  C174  1  0.03253201  0.64921837  0.03515386  1
  C  C175  1  0.05582508  0.59246576  0.00866991  1
  C  C176  1  0.07108017  0.69869629  0.05284909  1
  H  H177  1  0.15561765  0.73375577  0.05693735  1
  C  C178  1  0.41737912  0.77211752  0.18653076  1
  C  C179  1  0.26640975  0.58558095  0.20029540  1
  C  C180  1  0.22246921  0.54000004  0.21198595  1
  C  C181  1  0.03924369  0.75419251  0.08583682  1
  C  C182  1  0.27666827  0.64050574  0.23368863  1
  Cu  Cu183  1  0.42354210  0.66351451  0.01072765  1
  O  O184  1  0.30143660  0.51306469  0.13268904  1
  C  C185  1  0.49667749  0.79394329  0.11869380  1
  C  C186  1  0.21203542  0.62293637  0.01831112  1
  C  C187  1  0.24326599  0.71116535  0.31299944  1
  O  O188  1  0.43200732  0.87931619  0.38212806  1
  H  H189  1  0.23788102  0.94332360  0.49973291  1
  O  O190  1  0.27915994  0.75555341  0.30079394  1
  H  H191  1  0.16701269  0.61531830  0.32705277  1
  C  C192  1  0.24891160  0.98673864  0.36107597  1
  C  C193  1  0.06194401  0.72809517  0.41969518  1
  H  H194  1  0.14789200  0.64595642  0.43860121  1
  C  C195  1  0.38598717  0.90614400  0.46985749  1
  C  C196  1  0.12095880  0.65120831  0.47595299  1
  C  C197  1  0.19233509  0.60717975  0.29026961  1
  C  C198  1  0.07543537  0.69708298  0.47435213  1
  O  O199  1  0.39070974  0.75454346  0.30722570  1
  O  O200  1  0.21093285  0.71274600  0.35397052  1
  Cu  Cu201  1  0.15465092  0.78199431  0.37179763  1
  C  C202  1  0.39376065  0.86720581  0.41834857  1
  O  O203  1  0.09553316  0.72196743  0.38031925  1
  O  O204  1  0.36078073  0.81816659  0.41384334  1
  O  O205  1  0.21659616  0.56101490  0.48737189  1
  C  C206  1  0.22562602  0.87516596  0.40690399  1
  C  C207  1  0.24557786  0.97430328  0.46257070  1
  H  H208  1  0.24734806  0.96943879  0.31600871  1
  C  C209  1  0.43765804  0.77361481  0.28915173  1
  O  O210  1  0.20941893  0.84459001  0.36252620  1
  Cu  Cu211  1  0.32574384  0.79110756  0.35234452  1
  O  O212  1  0.01261248  0.75614378  0.41662570  1
  C  C213  1  0.24202252  0.94962820  0.40866998  1
  O  O214  1  0.48212450  0.77796764  0.32289943  1
  O  O215  1  0.22619904  0.84635799  0.45018065  1
  C  C216  1  0.41249378  0.96866941  0.47153569  1
  C  C217  1  0.23818758  0.64951265  0.27843754  1
  Cu  Cu218  1  0.49670511  0.81830212  0.38686180  1
  O  O219  1  0.02005216  0.84529053  0.28654589  1
  H  H220  1  0.43675656  0.98667093  0.43481657  1
  C  C221  1  0.18333722  0.55108116  0.25612340  1
  C  C222  1  0.13672624  0.50165111  0.27088218  1
  O  O223  1  0.11397654  0.51173736  0.32142937  1
  H  H224  1  0.10572537  0.58720148  0.60901359  1
  Cu  Cu225  1  0.30118869  0.74556773  0.61614917  1
  C  C226  1  0.02101688  0.67602189  0.62248464  1
  C  C227  1  0.18077223  0.56246210  0.52326181  1
  H  H228  1  0.01427825  0.89177941  0.65161452  1
  C  C229  1  0.41845429  0.72553265  0.60619474  1
  C  C230  1  0.14845129  0.81955245  0.62805853  1
  C  C231  1  0.10693650  0.78455358  0.71640480  1
  O  O232  1  0.32089776  0.91942053  0.65467692  1
  C  C233  1  0.46695841  0.54043124  0.66564175  1
  C  C234  1  0.15114192  0.78233956  0.67761601  1
  O  O235  1  0.37387258  0.75477633  0.58113162  1
  C  C236  1  0.09973241  0.85857171  0.62125031  1
  C  C237  1  0.31508204  0.88738280  0.60837070  1
  H  H238  1  0.44690329  0.80656509  0.52033321  1
  C  C239  1  0.45366598  0.52285670  0.61002967  1
  O  O240  1  0.22895250  0.72058740  0.64313367  1
  C  C241  1  0.20279850  0.74253707  0.68575328  1
  C  C242  1  0.05626176  0.82089112  0.70558868  1
  O  O243  1  0.05008834  0.93893738  0.56283592  1
  C  C244  1  0.05637865  0.66869699  0.56939753  1
  C  C245  1  0.42831809  0.52480352  0.70790538  1
  C  C246  1  0.09746843  0.61910545  0.57114586  1
  C  C247  1  0.34749353  0.91915737  0.56281283  1
  C  C248  1  0.38014027  0.97848329  0.56840690  1
  H  H249  1  0.18386867  0.82110198  0.59751868  1
  C  C250  1  0.49551843  0.53581416  0.56468137  1
  C  C251  1  0.04002932  0.70531040  0.52229574  1
  O  O252  1  0.03802321  0.65491463  0.66661685  1
  O  O253  1  0.41480623  0.68420729  0.64124980  1
  C  C254  1  0.48303092  0.78857613  0.54285567  1
  O  O255  1  0.14234088  0.92647646  0.55127749  1
  O  O256  1  0.28417050  0.83791205  0.60350284  1
  C  C257  1  0.05307887  0.86078071  0.65946476  1
  C  C258  1  0.13138197  0.61214699  0.52338181  1
  C  C259  1  0.09469020  0.91289544  0.57488759  1
  O  O260  1  0.21913656  0.72889581  0.73544778  1
  H  H261  1  0.00471681  0.73971415  0.52429425  1
  O  O262  1  0.18467325  0.52139260  0.56782139  1
  C  C263  1  0.47789359  0.74742770  0.58897599  1
  Cu  Cu264  1  0.26708920  0.98157656  0.67504913  1
  C  C265  1  0.35035615  0.88323347  0.51163893  1
  O  O266  1  0.47989006  0.52659060  0.51522057  1
  H  H267  1  0.32834884  0.83664192  0.50883779  1
  C  C268  1  0.00734729  0.81447020  0.74409461  1
  C  C269  1  0.32928415  0.92691169  0.89987765  1
  H  H270  1  0.05468719  0.53461264  0.81700979  1
  O  O271  1  0.02596610  0.78686845  0.78798777  1
  C  C272  1  0.22965049  0.78826997  0.86236421  1
  O  O273  1  0.22420986  0.51894946  0.80328473  1
  H  H274  1  0.22475005  0.89540564  0.84689276  1
  C  C275  1  0.25230988  0.85187443  0.86105596  1
  Cu  Cu276  1  0.36766849  0.56977801  0.85335803  1
  H  H277  1  0.24728132  0.68438797  0.87444646  1
  C  C278  1  0.17098827  0.77664938  0.84100495  1
  O  O279  1  0.30059185  0.97908504  0.88828972  1
  C  C280  1  0.26447681  0.73433127  0.87636814  1
  H  H281  1  0.38341355  0.81241428  0.92885376  1
  C  C282  1  0.32133108  0.74625497  0.89356685  1
  O  O283  1  0.33298064  0.62679792  0.90739772  1
  C  C284  1  0.35162451  0.68624228  0.91466060  1
  O  O285  1  0.15789649  0.71683743  0.83385790  1
  O  O286  1  0.39907462  0.69592804  0.93725835  1
  C  C287  1  0.30760752  0.86257082  0.88620005  1
  C  C288  1  0.02015554  0.53737960  0.98417778  1
  O  O289  1  0.13635274  0.82608805  0.83758662  1
  Cu  Cu290  1  0.05803370  0.81690078  0.85716137  1
  C  C291  1  0.34502839  0.80844357  0.90235276  1
  O  O292  1  0.37853135  0.93150176  0.92503504  1
  O  O293  1  0.41121327  0.51921247  0.80461234  1
  C  C294  1  0.17411086  0.52917768  0.81073728  1
  O  O295  1  0.47638212  0.96332907  0.86595346  1
  O  O296  1  0.03268753  0.90420850  0.88015546  1
  O  O297  1  0.00336403  0.76535193  0.90561852  1
  H  H298  1  0.11764724  0.97336984  0.86802501  1
  O  O299  1  0.15212345  0.59104030  0.81068746  1
  C  C300  1  0.00364338  0.94806001  0.85625441  1
  O  O301  1  0.23404048  0.57149854  0.99590126  1
  H  H302  1  0.13532024  0.54201854  0.97629760  1
  C  C303  1  0.11457473  0.58503871  0.99766312  1
  Cu  Cu304  1  0.43352714  0.99579889  0.93105835  1
  Cu  Cu305  1  0.18375992  0.65840314  0.77160232  1
  H  H306  1  0.39551337  0.99904840  0.78533189  1
  C  C307  1  0.44907491  0.53853290  0.76825801  1
  O  O308  1  0.49821316  0.55196019  0.77728479  1
  H  H309  1  0.11425950  0.76124003  0.75731972  1
  Cu  Cu310  1  0.56536609  0.31466031  0.12023358  1
  C  C311  1  0.57743150  0.46308193  0.15001088  1
  O  O312  1  0.58748265  0.22758028  0.14394524  1
  O  O313  1  0.50863554  0.28256346  0.07284010  1
  Cu  Cu314  1  0.69969431  0.28884744  0.17747171  1
  O  O315  1  0.80213554  0.17564284  0.20361816  1
  O  O316  1  0.77806684  0.28143046  0.18399161  1
  C  C317  1  0.80332063  0.22770147  0.17172458  1
  H  H318  1  0.52180357  0.17346452  0.07882604  1
  H  H319  1  0.70566099  0.14927122  0.04773406  1
  C  C320  1  0.62877327  0.20492027  0.11592745  1
  C  C321  1  0.55642855  0.15017380  0.05428548  1
  O  O322  1  0.62137287  0.35955231  0.16094075  1
  Cu  Cu323  1  0.91634629  0.47481390  0.00171014  1
  C  C324  1  0.82747123  0.47555397  0.17439418  1
  C  C325  1  0.61379296  0.16190035  0.06841731  1
  O  O326  1  0.74628777  0.03267869  0.07036408  1
  C  C327  1  0.85848824  0.28303888  0.09146329  1
  H  H328  1  0.84517125  0.33315640  0.10565499  1
  C  C329  1  0.83762827  0.22827692  0.12092423  1
  C  C330  1  0.63254194  0.42422460  0.14598366  1
  O  O331  1  0.67971137  0.22639420  0.12444627  1
  C  C332  1  0.88233251  0.16271616  0.04681002  1
  H  H333  1  0.83726404  0.12284715  0.12016686  1
  C  C334  1  0.85180156  0.16697508  0.09869309  1
  C  C335  1  0.65977942  0.13617363  0.03677366  1
  O  O336  1  0.67735639  0.43937358  0.12802828  1
  C  C337  1  0.53462956  0.44321675  0.18781206  1
  O  O338  1  0.85880661  0.04061769  0.03037947  1
  O  O339  1  0.89707753  0.39176786  0.03468566  1
  C  C340  1  0.89074303  0.27438808  0.04229551  1
  C  C341  1  0.88949447  0.09702948  0.01730815  1
  H  H342  1  0.83336468  0.45829333  0.07022346  1
  O  O343  1  0.86195125  0.43621872  0.15593505  1
  H  H344  1  0.54480744  0.40603152  0.21932282  1
  O  O345  1  0.82420874  0.47994100  0.22993138  1
  C  C346  1  0.90624145  0.33665706  0.01222588  1
  C  C347  1  0.90647746  0.21390649  0.01668283  1
  C  C348  1  0.54561349  0.11275485  0.00635680  1
  Cu  Cu349  1  0.78555288  0.01709971  0.00311705  1
  C  C350  1  0.62584704  0.16667239  0.35158116  1
  C  C351  1  0.72702301  0.21177136  0.40698898  1
  C  C352  1  0.65881288  0.22037967  0.33289749  1
  C  C353  1  0.64498394  0.13312411  0.39999318  1
  Cu  Cu354  1  0.83638219  0.17729224  0.27135430  1
  H  H355  1  0.87447477  0.21174184  0.41484912  1
  C  C356  1  0.69158534  0.16015002  0.42841482  1
  C  C357  1  0.88595373  0.05197090  0.28731975  1
  C  C358  1  0.51956438  0.26479225  0.46440390  1
  C  C359  1  0.77302500  0.23765712  0.44241450  1
  C  C360  1  0.64134901  0.25703840  0.28040244  1
  C  C361  1  0.90881997  0.24579119  0.42170955  1
  C  C362  1  0.91297476  0.29012447  0.37787038  1
  H  H363  1  0.96906599  0.37402961  0.34633917  1
  O  O364  1  0.59206816  0.25604787  0.26720478  1
  H  H365  1  0.73570520  0.28277586  0.33768483  1
  C  C366  1  0.71394077  0.48779774  0.34851984  1
  O  O367  1  0.93253365  0.07562850  0.28726023  1
  O  O368  1  0.72409235  0.46092023  0.47628642  1
  C  C369  1  0.71007338  0.24334549  0.35717163  1
  O  O370  1  0.75109642  0.39055956  0.38133100  1
  O  O371  1  0.83764170  0.24186066  0.32594396  1
  C  C372  1  0.76354635  0.44329983  0.35580411  1
  O  O373  1  0.56197368  0.06767542  0.41372285  1
  C  C374  1  0.87474705  0.28801839  0.32875074  1
  O  O375  1  0.79749362  0.29474870  0.43784781  1
  H  H376  1  0.65911660  0.42071927  0.39771396  1
  Cu  Cu377  1  0.76155517  0.37577477  0.46046534  1
  H  H378  1  0.58606758  0.15168894  0.32791667  1
  C  C379  1  0.94167941  0.25184735  0.47163015  1
  C  C380  1  0.95657181  0.34000868  0.38049676  1
  C  C381  1  0.98000481  0.30476504  0.47783053  1
  C  C382  1  0.61214179  0.08121298  0.42889647  1
  O  O383  1  0.81589525  0.45624811  0.34239010  1
  Cu  Cu384  1  0.84744117  0.41555331  0.28107877  1
  H  H385  1  0.69962658  0.13650719  0.46792793  1
  O  O386  1  0.56558950  0.28276049  0.44633752  1
  O  O387  1  0.88036214  0.33335011  0.29257554  1
  O  O388  1  0.63996771  0.04535515  0.46212248  1
  O  O389  1  0.83834217  0.08658323  0.28542459  1
  C  C390  1  0.98766277  0.34225532  0.42937914  1
  O  O391  1  0.68083143  0.29392277  0.25804129  1
  O  O392  1  0.56081803  0.45899051  0.44215080  1
  C  C393  1  0.66023919  0.47029178  0.37468866  1
  Cu  Cu394  1  0.50623895  0.12457110  0.44129873  1
  C  C395  1  0.56020333  0.49968880  0.40062459  1
  O  O396  1  0.78838109  0.19776812  0.47973930  1
  C  C397  1  0.75726329  0.44424525  0.71342949  1
  H  H398  1  0.85436920  0.31857321  0.69672378  1
  C  C399  1  0.80593824  0.22789788  0.71348828  1
  O  O400  1  0.94124702  0.13184974  0.73395975  1
  O  O401  1  0.74544330  0.27623338  0.55962460  1
  C  C402  1  0.51749457  0.37131267  0.59374996  1
  O  O403  1  0.81869879  0.13792343  0.65009907  1
  O  O404  1  0.60418197  0.43747558  0.59214553  1
  O  O405  1  0.88652034  0.17335452  0.53028571  1
  H  H406  1  0.57540632  0.36330082  0.52359347  1
  C  C407  1  0.82461083  0.29331856  0.72533715  1
  C  C408  1  0.76060964  0.33493962  0.56467818  1
  Cu  Cu409  1  0.88810832  0.10755550  0.68127403  1
  C  C410  1  0.53351157  0.34808023  0.54044914  1
  C  C411  1  0.78916968  0.46594047  0.66764071  1
  H  H412  1  0.69390085  0.30901224  0.65517969  1
  O  O413  1  0.78886439  0.36509409  0.52669725  1
  C  C414  1  0.55893401  0.41589974  0.62196211  1
  C  C415  1  0.81713822  0.19905607  0.65815935  1
  C  C416  1  0.79154279  0.43052871  0.61758403  1
  O  O417  1  0.83745066  0.23873067  0.62142193  1
  C  C418  1  0.75674347  0.37464054  0.61622071  1
  H  H419  1  0.82124314  0.44638336  0.58371470  1
  C  C420  1  0.72021187  0.35305599  0.65963606  1
  C  C421  1  0.72093997  0.38937025  0.71014234  1
  O  O422  1  0.55170398  0.43283798  0.66851160  1
  Cu  Cu423  1  0.81373173  0.21905751  0.55032154  1
  C  C424  1  0.53366051  0.19428950  0.72141894  1
  O  O425  1  0.97467923  0.20462134  0.55630681  1
  C  C426  1  0.93703559  0.20422535  0.52229966  1
  H  H427  1  0.76126229  0.13806742  0.73940161  1
  O  O428  1  0.51321599  0.23861362  0.69155569  1
  O  O429  1  0.88978118  0.01644672  0.68428719  1
  H  H430  1  0.81498158  0.00155452  0.60582024  1
  C  C431  1  0.99760456  0.14303179  0.74048554  1
  O  O432  1  0.64300832  0.32102596  0.74639945  1
  O  O433  1  0.58054971  0.20238608  0.74844161  1
  C  C434  1  0.50136049  0.29573137  0.51831038  1
  H  H435  1  0.95465200  0.03670592  0.78860470  1
  H  H436  1  0.50524512  0.26617937  0.96466014  1
  O  O437  1  0.86579124  0.41717027  0.76364225  1
  C  C438  1  0.67942467  0.37216353  0.75600437  1
  C  C439  1  0.71852138  0.18527481  0.84124280  1
  O  O440  1  0.67580537  0.04085576  0.90628595  1
  H  H441  1  0.56418388  0.09265590  0.78787930  1
  C  C442  1  0.50079906  0.32096428  0.85398738  1
  Cu  Cu443  1  0.88155462  0.37273171  0.90357635  1
  O  O444  1  0.82913532  0.40128837  0.84704426  1
  C  C445  1  0.97813828  0.43860898  0.84147997  1
  H  H446  1  0.76237376  0.30934544  0.85330165  1
  O  O447  1  0.83972818  0.47838518  0.97032713  1
  O  O448  1  0.74236450  0.08076245  0.96112221  1
  Cu  Cu449  1  0.73151356  0.04451825  0.84494440  1
  C  C450  1  0.58876667  0.08695928  0.97352251  1
  C  C451  1  0.83574882  0.38210504  0.79724868  1
  C  C452  1  0.75755467  0.22125034  0.80132520  1
  O  O453  1  0.54286811  0.27885563  0.85218284  1
  O  O454  1  0.67467844  0.40556564  0.79563995  1
  C  C455  1  0.81293898  0.31795424  0.77873436  1
  O  O456  1  0.92361634  0.33265105  0.96241885  1
  O  O457  1  0.94695618  0.38750803  0.85551129  1
  O  O458  1  0.70206041  0.12563780  0.82543447  1
  O  O459  1  0.70492813  0.21075885  0.88437991  1
  C  C460  1  0.77681410  0.28371555  0.81656660  1
  Cu  Cu461  1  0.59559826  0.28075468  0.79446898  1
  H  H462  1  0.57693424  0.05796024  0.93442411  1
  H  H463  1  0.76362354  0.47012390  0.75529241  1
  C  C464  1  0.69025470  0.06935668  0.95080206  1
  C  C465  1  0.77531795  0.19072962  0.75156438  1
  C  C466  1  0.52007404  0.08931495  0.77200315  1
  C  C467  1  0.64754143  0.09860537  0.98951930  1
  O  O468  1  0.95412057  0.49292661  0.82929911  1
  H  H469  1  0.92798567  0.20408308  0.97578092  1
  O  O470  1  0.92356595  0.09064023  0.98140593  1
  O  O471  1  0.73784523  0.96869141  0.14655143  1
  C  C472  1  0.75292706  0.56539067  0.14761045  1
  Cu  Cu473  1  0.67998606  0.91257687  0.16835956  1
  Cu  Cu474  1  0.58411731  0.71869054  0.08900251  1
  H  H475  1  0.80530771  0.86737341  0.09985145  1
  O  O476  1  0.66296904  0.68717509  0.07683297  1
  H  H477  1  0.71901546  0.62003870  0.01562533  1
  H  H478  1  0.73842833  0.57249197  0.19068902  1
  C  C479  1  0.74064384  0.97721646  0.09422296  1
  O  O480  1  0.76942277  0.79308710  0.24164534  1
  C  C481  1  0.72643088  0.60060012  0.10479583  1
  C  C482  1  0.68498940  0.65283629  0.11605729  1
  C  C483  1  0.77530047  0.86619051  0.06446841  1
  H  H484  1  0.98332946  0.65319361  0.03650379  1
  C  C485  1  0.74013006  0.59107271  0.04825787  1
  C  C486  1  0.58917534  0.83284071  0.15196513  1
  C  C487  1  0.50716547  0.61147675  0.08447063  1
  H  H488  1  0.50658854  0.79623159  0.07517450  1
  O  O489  1  0.61891307  0.86132977  0.18911305  1
  O  O490  1  0.61038799  0.80652263  0.11082576  1
  O  O491  1  0.67648068  0.66515029  0.16699248  1
  H  H492  1  0.60086571  0.52815591  0.08771627  1
  Cu  Cu493  1  0.72024763  0.72729483  0.20771777  1
  C  C494  1  0.78096911  0.54108862  0.03718422  1
  C  C495  1  0.51399907  0.55203999  0.11897916  1
  Cu  Cu496  1  0.93170284  0.79206323  0.04098846  1
  C  C497  1  0.53036484  0.81055744  0.16450594  1
  O  O498  1  0.54987046  0.64005661  0.06276539  1
  C  C499  1  0.50959240  0.81214544  0.21865284  1
  O  O500  1  0.98389474  0.74878646  0.09132451  1
  O  O501  1  0.86324270  0.77254212  0.07264638  1
  C  C502  1  0.73775896  0.91910366  0.05803940  1
  C  C503  1  0.56791600  0.51810954  0.11715669  1
  C  C504  1  0.80637599  0.50182603  0.07821438  1
  H  H505  1  0.66627029  0.95725644  0.00932325  1
  C  C506  1  0.69750402  0.91616952  0.01558971  1
  C  C507  1  0.77467141  0.81053287  0.02877845  1
  C  C508  1  0.81800088  0.75620328  0.04426678  1
  C  C509  1  0.79626152  0.51956932  0.13474400  1
  O  O510  1  0.72245488  0.88722088  0.23630702  1
  C  C511  1  0.76713755  0.85557340  0.24709687  1
  O  O512  1  0.81429379  0.70186894  0.02252304  1
  C  C513  1  0.82385614  0.95401914  0.27416483  1
  O  O514  1  0.64199429  0.69439054  0.29693123  1
  O  O515  1  0.60582549  0.85843204  0.47468401  1
  O  O516  1  0.51255593  0.51762951  0.38001866  1
  O  O517  1  0.72702037  0.66512898  0.26741563  1
  Cu  Cu518  1  0.95248762  0.73010900  0.37002628  1
  C  C519  1  0.55286244  0.84427435  0.48291670  1
  O  O520  1  0.92148061  0.68584049  0.43140127  1
  H  H521  1  0.58217466  0.60386954  0.33524168  1
  O  O522  1  0.95924597  0.76130160  0.29633477  1
  C  C523  1  0.92139075  0.87357767  0.28088350  1
  C  C524  1  0.88397648  0.63659328  0.42598248  1
  O  O525  1  0.87146463  0.61391535  0.38121094  1
  C  C526  1  0.67958047  0.65252370  0.29384974  1
  C  C527  1  0.72308667  0.54589600  0.31856661  1
  C  C528  1  0.67193833  0.58371703  0.31724573  1
  H  H529  1  0.80693541  0.53440592  0.43144807  1
  C  C530  1  0.80844160  0.56511323  0.46974576  1
  H  H531  1  0.86340070  0.78815949  0.26221000  1
  C  C532  1  0.61469006  0.51218815  0.37163559  1
  H  H533  1  0.76398038  0.56076867  0.30164212  1
  C  C534  1  0.61663570  0.56790961  0.33567136  1
  C  C535  1  0.84801976  0.61834599  0.47580237  1
  Cu  Cu536  1  0.62749231  0.95422726  0.47309751  1
  C  C537  1  0.86836781  0.84210002  0.27265317  1
  C  C538  1  0.93257421  0.94128315  0.28672923  1
  C  C539  1  0.82087533  0.88555995  0.26771271  1
  H  H540  1  0.78525641  0.98372611  0.26643208  1
  C  C541  1  0.97232503  0.82425756  0.28654843  1
  C  C542  1  0.88011256  0.97581302  0.28353492  1
  H  H543  1  0.97456572  0.96627283  0.29451780  1
  O  O544  1  0.51356671  0.86478863  0.44959763  1
  H  H545  1  0.53923880  0.82617154  0.25108627  1
  C  C546  1  0.85500294  0.65743451  0.52269228  1
  Cu  Cu547  1  0.91401462  0.71843458  0.67408404  1
  H  H548  1  0.63154815  0.79590201  0.54833864  1
  C  C549  1  0.58826686  0.78362400  0.56202995  1
  C  C550  1  0.57640446  0.73982826  0.60549323  1
  C  C551  1  0.78520438  0.97273500  0.63218341  1
  H  H552  1  0.51075043  0.68829914  0.65894903  1
  C  C553  1  0.79974716  0.95520285  0.68721222  1
  H  H554  1  0.88997153  0.69476690  0.52695891  1
  C  C555  1  0.62292118  0.71170189  0.64348324  1
  O  O556  1  0.77355248  0.68000495  0.65050263  1
  C  C557  1  0.77295068  0.59532138  0.56218889  1
  C  C558  1  0.76030535  0.92659692  0.72321722  1
  O  O559  1  0.61215665  0.67442653  0.67960755  1
  O  O560  1  0.74605176  0.99521994  0.52647240  1
  H  H561  1  0.64567874  0.90834839  0.63087366  1
  C  C562  1  0.54000286  0.80552708  0.53195039  1
  O  O563  1  0.67662191  0.73596684  0.63399134  1
  Cu  Cu564  1  0.73261495  0.75542239  0.68381519  1
  C  C565  1  0.70320009  0.91197665  0.70587837  1
  C  C566  1  0.81344685  0.68906338  0.61623835  1
  C  C567  1  0.52101512  0.72063706  0.62296821  1
  O  O568  1  0.97338502  0.70992144  0.61840790  1
  H  H569  1  0.74275301  0.58654977  0.59641400  1
  O  O570  1  0.86432251  0.53423078  0.63851292  1
  C  C571  1  0.83592153  0.51975923  0.67734206  1
  C  C572  1  0.72992117  0.95219398  0.61495133  1
  O  O573  1  0.86190466  0.72021379  0.73987322  1
  C  C574  1  0.81575698  0.64524379  0.56592100  1
  O  O575  1  0.85241145  0.73197915  0.62429740  1
  C  C576  1  0.68939903  0.92107899  0.64890282  1
  O  O577  1  0.54635506  0.55227703  0.57712377  1
  O  O578  1  0.95644196  0.83440338  0.73694021  1
  C  C579  1  0.77041411  0.55640087  0.51347485  1
  O  O580  1  0.61173076  0.86565756  0.72082603  1
  Cu  Cu581  1  0.61915268  0.52383874  0.56552336  1
  O  O582  1  0.78761598  0.78964546  0.73491392  1
  O  O583  1  0.65969067  0.95047764  0.54369301  1
  C  C584  1  0.85628671  0.97745474  0.71175523  1
  C  C585  1  0.71078859  0.97134442  0.55826028  1
  H  H586  1  0.50958098  0.55597455  0.67687290  1
  C  C587  1  0.72819789  0.50112569  0.51715985  1
  C  C588  1  0.65511628  0.88557924  0.74249367  1
  O  O589  1  0.84150806  0.54283967  0.72750750  1
  O  O590  1  0.69545580  0.50075524  0.55754482  1
  Cu  Cu591  1  0.60380540  0.91211642  0.84926666  1
  O  O592  1  0.61759200  0.89173510  0.92334984  1
  C  C593  1  0.65280565  0.84510953  0.93685868  1
  O  O594  1  0.65825024  0.79188048  0.91358855  1
  C  C595  1  0.84229629  0.79289859  0.81591164  1
  O  O596  1  0.56273252  0.99103716  0.83802229  1
  C  C597  1  0.83082647  0.76510038  0.76183238  1
  C  C598  1  0.90597580  0.80772834  0.89429910  1
  O  O599  1  0.81742081  0.98350909  0.93321324  1
  C  C600  1  0.80783227  0.84455020  0.83583647  1
  O  O601  1  0.75725547  0.96089185  0.86269428  1
  O  O602  1  0.95114087  0.93810498  0.84445627  1
  O  O603  1  0.96034031  0.82085045  0.97224013  1
  C  C604  1  0.79998106  0.52349540  0.97854920  1
  C  C605  1  0.87436592  0.86374256  0.91276135  1
  O  O606  1  0.78128305  0.55448838  0.93992358  1
  H  H607  1  0.76987775  0.86105036  0.81284144  1
  H  H608  1  0.73414238  0.75703729  0.95764246  1
  H  H609  1  0.91442037  0.72723488  0.83500878  1
  C  C610  1  0.82464346  0.88000047  0.88423588  1
  C  C611  1  0.88981180  0.77095724  0.84877787  1
  Cu  Cu612  1  0.91394717  0.88901338  0.78584431  1
  H  H613  1  0.89210950  0.89645689  0.94572778  1
  C  C614  1  0.79803431  0.94384439  0.89627971  1
  C  C615  1  0.73720883  0.80492669  0.98453748  1
  C  C616  1  0.96035906  0.79259409  0.92411452  1
  C  C617  1  0.69723290  0.85798545  0.98236686  1
  H  H618  1  0.77409151  0.91703390  0.76616037  1
  O  O619  1  0.65894180  0.88744191  0.79596139  1
  O  O620  1  0.86976122  0.96100945  0.75877403  1
  Cu  Cu621  1  0.89973640  0.51098784  0.77254687  1
  C  C622  1  0.50876629  0.99393243  0.83358131  1
  O  O623  1  0.96249260  0.54313919  0.99141017  1
