# generated using pymatgen
data_Zn4H14C30O13
_symmetry_space_group_name_H-M   'P 1'
_cell_length_a   17.73170265
_cell_length_b   6.72081299
_cell_length_c   26.08609837
_cell_angle_alpha   90.00000000
_cell_angle_beta   90.00000000
_cell_angle_gamma   90.00000000
_symmetry_Int_Tables_number   1
_chemical_formula_structural   Zn4H14C30O13
_chemical_formula_sum   'Zn16 H56 C120 O52'
_cell_volume   3108.71836541
_cell_formula_units_Z   4
loop_
 _symmetry_equiv_pos_site_id
 _symmetry_equiv_pos_as_xyz
  1  'x, y, z'
loop_
 _atom_site_type_symbol
 _atom_site_label
 _atom_site_symmetry_multiplicity
 _atom_site_fract_x
 _atom_site_fract_y
 _atom_site_fract_z
 _atom_site_occupancy
  C  C0  1  0.09685071  0.09621176  0.01225036  1
  O  O1  1  0.13952328  0.05024400  0.19153608  1
  H  H2  1  0.42449642  0.17757299  0.04581444  1
  C  C3  1  0.09332692  0.08451332  0.15512220  1
  H  H4  1  0.27485515  0.44842071  0.07183317  1
  C  C5  1  0.06335616  0.11267628  0.06478719  1
  C  C6  1  0.01643006  0.12973358  0.16443800  1
  H  H7  1  0.17490068  0.02786887  0.09104855  1
  C  C8  1  0.11581241  0.06844493  0.10302167  1
  C  C9  1  0.46069907  0.16468409  0.08119804  1
  H  H10  1  0.21732173  0.06783021  0.03686905  1
  O  O11  1  0.36765409  0.46446236  0.22709333  1
  C  C12  1  0.34695055  0.01577361  0.12005874  1
  C  C13  1  0.43097580  0.08451971  0.12362957  1
  C  C14  1  0.46592677  0.05597687  0.17004203  1
  O  O15  1  0.31320860  0.02535526  0.08046425  1
  C  C16  1  0.17600112  0.06713841  0.00358333  1
  H  H17  1  0.22493417  0.05923535  0.46688713  1
  C  C18  1  0.25863766  0.18303491  0.48243945  1
  C  C19  1  0.36812562  0.34965837  0.36477185  1
  O  O20  1  0.11353152  0.15680679  0.35904719  1
  C  C21  1  0.31704062  0.14501876  0.29126972  1
  C  C22  1  0.37131862  0.31326613  0.30822384  1
  C  C23  1  0.32063110  0.26554299  0.45520954  1
  H  H24  1  0.29662440  0.14469329  0.25011985  1
  C  C25  1  0.05621143  0.09306687  0.33888794  1
  O  O26  1  0.05672329  0.05426663  0.29056426  1
  C  C27  1  0.33650370  0.19829820  0.40260231  1
  H  H28  1  0.03642303  0.12720471  0.43812226  1
  C  C29  1  0.36520853  0.41645711  0.48073320  1
  C  C30  1  0.29895132  0.01746192  0.38271923  1
  Zn  Zn31  1  0.15986372  0.43452681  0.32790079  1
  Zn  Zn32  1  0.40568414  0.05830229  0.34204569  1
  C  C33  1  0.39610158  0.45831973  0.27155279  1
  H  H34  1  0.49048152  0.01467981  0.47234532  1
  H  H35  1  0.41602269  0.47910327  0.46321921  1
  C  C36  1  0.23923681  0.24973890  0.53043954  1
  H  H37  1  0.45864451  0.24635667  0.57570053  1
  H  H38  1  0.19391634  0.17253129  0.54921765  1
  O  O39  1  0.39109487  0.05281050  0.64218397  1
  O  O40  1  0.19938379  0.42816013  0.62610322  1
  Zn  Zn41  1  0.20876716  0.29787722  0.69809564  1
  O  O42  1  0.42306363  0.09468386  0.72109319  1
  C  C43  1  0.42654711  0.14373410  0.67545340  1
  C  C44  1  0.47650993  0.31430879  0.65746925  1
  C  C45  1  0.27922623  0.40902417  0.55412346  1
  C  C46  1  0.48822725  0.34112068  0.60515648  1
  O  O47  1  0.25341544  0.05651118  0.72181892  1
  C  C48  1  0.34285222  0.48709279  0.52899395  1
  H  H49  1  0.00043228  0.35351033  0.52706635  1
  C  C50  1  0.25767453  0.49325271  0.60305917  1
  Zn  Zn51  1  0.33047915  0.12634519  0.78282745  1
  H  H52  1  0.26556021  0.46921483  0.97675564  1
  O  O53  1  0.13985417  0.00201952  0.82506169  1
  O  O54  1  0.30908909  0.44835534  0.80434888  1
  H  H55  1  0.46236488  0.34854804  0.98905112  1
  C  C56  1  0.08436812  0.08421571  0.91716283  1
  C  C57  1  0.05455873  0.11575607  0.96601319  1
  H  H58  1  0.04997340  0.11469145  0.88247380  1
  O  O59  1  0.43252007  0.15594853  0.83110447  1
  C  C60  1  0.44799134  0.09872924  0.87557081  1
  C  C61  1  0.20940843  0.03988533  0.95565938  1
  C  C62  1  0.16160890  0.03964727  0.91314515  1
  H  H63  1  0.26832940  0.00634937  0.95064041  1
  O  O64  1  0.40081076  0.05301565  0.90808138  1
  C  C65  1  0.18865693  0.01151296  0.85926937  1
  C  C66  1  0.09611791  0.65404157  0.06635895  1
  Zn  Zn67  1  0.11394795  0.82818043  0.24368768  1
  C  C68  1  0.16295064  0.58565271  0.08701503  1
  O  O69  1  0.11710883  0.62564029  0.17289105  1
  Zn  Zn70  1  0.31175317  0.69243999  0.19315913  1
  C  C71  1  0.17032141  0.58799321  0.14321000  1
  C  C72  1  0.08873323  0.64271666  0.01311619  1
  H  H73  1  0.05404967  0.71880388  0.09154657  1
  O  O74  1  0.23172128  0.50865691  0.16066324  1
  H  H75  1  0.03959331  0.71792903  0.00139651  1
  H  H76  1  0.43577159  0.98634383  0.20171654  1
  O  O77  1  0.31380371  0.96760849  0.16308556  1
  C  C78  1  0.22093857  0.51944280  0.00286124  1
  C  C79  1  0.22337401  0.51808500  0.05520200  1
  C  C80  1  0.06320945  0.67581019  0.39682895  1
  O  O81  1  0.24236431  0.65129703  0.34032728  1
  O  O82  1  0.07299740  0.59595770  0.29628430  1
  C  C83  1  0.06047265  0.69179599  0.44998809  1
  C  C84  1  0.29642561  0.97758599  0.32505528  1
  H  H85  1  0.27690648  0.90598032  0.40965067  1
  O  O86  1  0.43884937  0.59427552  0.28656250  1
  C  C87  1  0.26068203  0.78874263  0.31041546  1
  H  H88  1  0.11745823  0.69909414  0.37751617  1
  H  H89  1  0.10841663  0.74623198  0.47197061  1
  O  O90  1  0.23614883  0.78003112  0.26349421  1
  C  C91  1  0.00292644  0.57737925  0.31424253  1
  H  H92  1  0.37412517  0.51095684  0.37837754  1
  O  O93  1  0.17616237  0.91406511  0.61514925  1
  C  C94  1  0.04483437  0.82563300  0.60579660  1
  C  C95  1  0.05392423  0.75780496  0.55581683  1
  Zn  Zn96  1  0.28387567  0.90296656  0.65737216  1
  H  H97  1  0.37641665  0.60382954  0.54675251  1
  H  H98  1  0.10567450  0.76575398  0.53734376  1
  C  C99  1  0.11188136  0.89374300  0.63584527  1
  O  O100  1  0.29634595  0.61940533  0.62482993  1
  O  O101  1  0.10099539  0.92674318  0.68221156  1
  C  C102  1  0.49890138  0.75527525  0.52100806  1
  Zn  Zn103  1  0.17332619  0.87193867  0.74921473  1
  H  H104  1  0.46666383  0.82219339  0.55160914  1
  O  O105  1  0.22219363  0.55157618  0.74933259  1
  H  H106  1  0.02076303  0.60702010  0.94088363  1
  C  C107  1  0.19934979  0.55579036  0.88719038  1
  H  H108  1  0.49468611  0.99932737  0.96951334  1
  C  C109  1  0.18402377  0.52419226  0.83647605  1
  H  H110  1  0.09108802  0.50409025  0.78255077  1
  C  C111  1  0.06459662  0.59097441  0.91094553  1
  C  C112  1  0.14980425  0.56855379  0.98144224  1
  O  O113  1  0.25759495  0.98998151  0.84906677  1
  C  C114  1  0.04896953  0.56405989  0.85867465  1
  C  C115  1  0.10806194  0.52464543  0.82318198  1
  C  C116  1  0.14160875  0.56452898  0.92468158  1
  C  C117  1  0.24414121  0.50260099  0.79516825  1
  H  H118  1  0.25985179  0.57663426  0.89618773  1
  H  H119  1  0.67343895  0.35120973  0.07992298  1
  C  C120  1  0.64458329  0.39062133  0.04416122  1
  O  O121  1  0.83706078  0.23584360  0.10257034  1
  C  C122  1  0.56499570  0.34438346  0.03667782  1
  H  H123  1  0.94912292  0.19870779  0.04144873  1
  C  C124  1  0.53766168  0.23301308  0.08180384  1
  Zn  Zn125  1  0.69911124  0.41148954  0.24553144  1
  O  O126  1  0.66328696  0.10814743  0.20773696  1
  C  C127  1  0.54234208  0.09824598  0.16714196  1
  C  C128  1  0.57848410  0.19220137  0.12623736  1
  H  H129  1  0.63811558  0.23159257  0.13331796  1
  C  C130  1  0.88303787  0.19840660  0.13599863  1
  O  O131  1  0.86267214  0.21149703  0.18274069  1
  C  C132  1  0.96676710  0.15842092  0.12439923  1
  C  C133  1  0.98806064  0.16539015  0.07354932  1
  H  H134  1  0.99412561  0.15244566  0.20320709  1
  C  C135  1  0.59470445  0.05975011  0.21178476  1
  H  H136  1  0.75929738  0.04159492  0.00780480  1
  Zn  Zn137  1  0.79307015  0.00084687  0.21917537  1
  C  C138  1  0.68327511  0.45330851  0.00148699  1
  H  H139  1  0.74335698  0.46363795  0.00180473  1
  C  C140  1  0.91147655  0.15946896  0.44622068  1
  O  O141  1  0.72067493  0.19307447  0.35519156  1
  Zn  Zn142  1  0.59914846  0.20050801  0.32211462  1
  C  C143  1  0.84788696  0.16361170  0.41604834  1
  H  H144  1  0.79445732  0.19371114  0.43250439  1
  O  O145  1  0.78555313  0.21054105  0.28328735  1
  C  C146  1  0.91910137  0.11692854  0.33522170  1
  O  O147  1  0.54302033  0.01755090  0.37641518  1
  C  C148  1  0.78096964  0.17919555  0.33253177  1
  H  H149  1  0.92455382  0.10565634  0.29195143  1
  C  C150  1  0.85239576  0.14768455  0.36194028  1
  C  C151  1  0.98212149  0.11173503  0.36786361  1
  C  C152  1  0.98108049  0.13315510  0.42106106  1
  O  O153  1  0.60607855  0.44493963  0.28103786  1
  H  H154  1  0.79425941  0.01057440  0.49419301  1
  C  C155  1  0.56649935  0.45514197  0.49024146  1
  H  H156  1  0.59816924  0.48067821  0.40895493  1
  H  H157  1  0.59033714  0.30471610  0.49747657  1
  C  C158  1  0.86430350  0.18390416  0.60949478  1
  C  C159  1  0.81196134  0.10024643  0.57315845  1
  H  H160  1  0.97046333  0.32827188  0.62451604  1
  O  O161  1  0.89211472  0.30239536  0.69396262  1
  C  C162  1  0.84713201  0.21415410  0.66429869  1
  C  C163  1  0.83404978  0.08263917  0.52146177  1
  O  O164  1  0.78535291  0.15057895  0.68221191  1
  C  C165  1  0.95408907  0.25499516  0.54092755  1
  C  C166  1  0.93587916  0.25397705  0.59263055  1
  H  H167  1  0.75600944  0.04358937  0.58535388  1
  C  C168  1  0.51107620  0.43920762  0.69209520  1
  H  H169  1  0.50639141  0.41803064  0.73383458  1
  C  C170  1  0.90231696  0.17073666  0.50392254  1
  C  C171  1  0.52271373  0.38456821  0.99089338  1
  O  O172  1  0.88789001  0.04723643  0.97688202  1
  C  C173  1  0.65847397  0.11637285  0.87447530  1
  O  O174  1  0.78703488  0.07471774  0.84797909  1
  O  O175  1  0.71687970  0.18422403  0.78800921  1
  C  C176  1  0.72406074  0.12869683  0.83481535  1
  H  H177  1  0.99453371  0.17118851  0.96509824  1
  C  C178  1  0.56375548  0.45768669  0.95055276  1
  C  C179  1  0.58401698  0.13857168  0.85886158  1
  H  H180  1  0.56647042  0.20174260  0.82237882  1
  H  H181  1  0.53136140  0.49588478  0.91704219  1
  C  C182  1  0.54383089  0.03089138  0.94602119  1
  C  C183  1  0.53068324  0.08714710  0.89586247  1
  C  C184  1  0.67395029  0.07217311  0.92500441  1
  H  H185  1  0.73284101  0.04554394  0.93487541  1
  C  C186  1  0.62166001  0.02522330  0.96335045  1
  C  C187  1  0.64204975  0.49541108  0.95534424  1
  C  C188  1  0.71134557  0.70329591  0.15899370  1
  C  C189  1  0.68672736  0.76872515  0.10728591  1
  H  H190  1  0.80027834  0.88019998  0.09133970  1
  C  C191  1  0.58670429  0.83977147  0.04557561  1
  H  H192  1  0.56605246  0.68037541  0.11427997  1
  C  C193  1  0.60879709  0.75656374  0.09116327  1
  C  C194  1  0.74104257  0.87280209  0.07788463  1
  O  O195  1  0.77159433  0.76627897  0.17857001  1
  O  O196  1  0.66946497  0.58730501  0.18316682  1
  H  H197  1  0.52942135  0.82683375  0.03172114  1
  C  C198  1  0.71917771  0.95619090  0.03206726  1
  C  C199  1  0.64210988  0.93816103  0.01459416  1
  O  O200  1  0.89226192  0.71892603  0.00615530  1
  O  O201  1  0.95198489  0.54087944  0.28536956  1
  Zn  Zn202  1  0.55034533  0.69015812  0.27631794  1
  C  C203  1  0.54944229  0.75124578  0.43616437  1
  C  C204  1  0.50779368  0.85904375  0.47482012  1
  H  H205  1  0.87548820  0.56606616  0.37200154  1
  O  O206  1  0.59929004  0.74312826  0.35110486  1
  H  H207  1  0.86679702  0.61689145  0.46582998  1
  C  C208  1  0.92161049  0.62545597  0.44719319  1
  C  C209  1  0.92564298  0.60148164  0.39500762  1
  C  C210  1  0.56741826  0.83771844  0.38615944  1
  C  C211  1  0.56868346  0.54506517  0.44145005  1
  O  O212  1  0.57111183  0.98660983  0.25457898  1
  C  C213  1  0.99692998  0.61903220  0.37179340  1
  C  C214  1  0.98840793  0.66994591  0.47519156  1
  O  O215  1  0.78391923  0.64877290  0.61462656  1
  C  C216  1  0.91262085  0.69884100  0.55553861  1
  Zn  Zn217  1  0.75584870  0.92189286  0.73318261  1
  O  O218  1  0.84569822  0.74057263  0.68470372  1
  C  C219  1  0.56457148  0.64594841  0.62161907  1
  C  C220  1  0.60291647  0.72208537  0.71012485  1
  C  C221  1  0.55970065  0.59160087  0.67428985  1
  H  H222  1  0.86206857  0.63966860  0.53637113  1
  Zn  Zn223  1  0.85168511  0.53103704  0.74733189  1
  C  C224  1  0.91336864  0.73998109  0.60873004  1
  H  H225  1  0.59196017  0.78290647  0.60894703  1
  O  O226  1  0.64272164  0.86919907  0.69721597  1
  C  C227  1  0.84011663  0.70207106  0.63555088  1
  C  C228  1  0.98310665  0.71494458  0.53117657  1
  H  H229  1  0.97707811  0.82447654  0.67371477  1
  C  C230  1  0.97646731  0.80493075  0.63385444  1
  C  C231  1  0.53002722  0.50667717  0.58748325  1
  C  C232  1  0.53259012  0.56209654  0.53099270  1
  O  O233  1  0.59688051  0.68442403  0.75775305  1
  O  O234  1  0.77414536  0.69344682  0.77880150  1
  Zn  Zn235  1  0.81531869  0.75815792  0.84742572  1
  C  C236  1  0.68181115  0.57717489  0.91055357  1
  C  C237  1  0.88893410  0.88460655  0.99185742  1
  O  O238  1  0.74800340  0.63342134  0.91135165  1
  Zn  Zn239  1  0.68436806  0.51752188  0.79527384  1
  O  O240  1  0.96272520  0.53193110  0.78674406  1
  O  O241  1  0.63934910  0.60674347  0.87110770  1
  O  O242  1  0.91912239  0.59640557  0.86384511  1
  C  C243  1  0.97382715  0.56704093  0.83412353  1
