# generated using pymatgen
data_Cu2H8C13N6
_symmetry_space_group_name_H-M   'P 1'
_cell_length_a   11.98008835
_cell_length_b   13.18244841
_cell_length_c   22.79922423
_cell_angle_alpha   90.00000000
_cell_angle_beta   90.00000000
_cell_angle_gamma   90.00000000
_symmetry_Int_Tables_number   1
_chemical_formula_structural   Cu2H8C13N6
_chemical_formula_sum   'Cu24 H96 C156 N72'
_cell_volume   3600.61072799
_cell_formula_units_Z   12
loop_
 _symmetry_equiv_pos_site_id
 _symmetry_equiv_pos_as_xyz
  1  'x, y, z'
loop_
 _atom_site_type_symbol
 _atom_site_label
 _atom_site_symmetry_multiplicity
 _atom_site_fract_x
 _atom_site_fract_y
 _atom_site_fract_z
 _atom_site_occupancy
  Cu  Cu0  1  0.23648484  0.39428728  0.21963136  1
  C  C1  1  0.32068035  0.03583049  0.15014559  1
  Cu  Cu2  1  0.26896221  0.33743394  0.02659010  1
  N  N3  1  0.12651702  0.22789691  0.09533372  1
  C  C4  1  0.34288910  0.02073434  0.21044920  1
  Cu  Cu5  1  0.05537832  0.46348996  0.17073438  1
  N  N6  1  0.23034956  0.19031871  0.10125463  1
  N  N7  1  0.41133503  0.37130965  0.06728254  1
  C  C8  1  0.22327934  0.09965920  0.13109312  1
  N  N9  1  0.11613794  0.07475879  0.14117256  1
  Cu  Cu10  1  0.32998892  0.21820493  0.19683078  1
  C  C11  1  0.05674082  0.15695996  0.11840301  1
  C  C12  1  0.27259185  0.46350645  0.13120554  1
  C  C13  1  0.34022531  0.41800449  0.10012122  1
  Cu  Cu14  1  0.41570425  0.22665013  0.08778647  1
  H  H15  1  0.27787883  0.07014254  0.04058121  1
  H  H16  1  0.06704218  0.05218496  0.02478029  1
  N  N17  1  0.48355140  0.23466074  0.22212646  1
  H  H18  1  0.01578396  0.36839269  0.01754680  1
  H  H19  1  0.29154291  0.05274259  0.24645198  1
  Cu  Cu20  1  0.41843912  0.47384176  0.00125016  1
  C  C21  1  0.12654785  0.00750762  0.00146263  1
  C  C22  1  0.04882345  0.44498726  0.00382498  1
  C  C23  1  0.24390433  0.01925177  0.00619463  1
  C  C24  1  0.12642579  0.07668087  0.33921939  1
  C  C25  1  0.10528335  0.39663302  0.46844612  1
  C  C26  1  0.46210212  0.42883684  0.39599858  1
  C  C27  1  0.19966528  0.22368729  0.27404156  1
  N  N28  1  0.42067519  0.34777779  0.37618942  1
  N  N29  1  0.12412605  0.22484747  0.42773110  1
  N  N30  1  0.26256792  0.26377248  0.49075012  1
  C  C31  1  0.19777855  0.14673668  0.43150573  1
  H  H32  1  0.41350412  0.30111595  0.41265698  1
  N  N33  1  0.27326154  0.27583052  0.27526855  1
  N  N34  1  0.28373978  0.17133635  0.46995039  1
  C  C35  1  0.17029065  0.29861370  0.45973553  1
  C  C36  1  0.19513374  0.06073891  0.38839330  1
  Cu  Cu37  1  0.27113204  0.38791866  0.33544217  1
  Cu  Cu38  1  0.43318109  0.26356830  0.29986984  1
  H  H39  1  0.09182267  0.15481745  0.33303350  1
  C  C40  1  0.11505803  0.00245575  0.29640875  1
  N  N41  1  0.20886124  0.49808291  0.28836425  1
  C  C42  1  0.16134877  0.47677446  0.49604547  1
  H  H43  1  0.07411876  0.00901622  0.25440781  1
  H  H44  1  0.04141082  0.26625414  0.74053721  1
  H  H45  1  0.24450827  0.03493983  0.52910000  1
  H  H46  1  0.48186757  0.08929825  0.50293731  1
  H  H47  1  0.03799415  0.38704172  0.66206611  1
  H  H48  1  0.41841227  0.27936581  0.51635294  1
  C  C49  1  0.34585801  0.30103196  0.63872289  1
  C  C50  1  0.01147267  0.01298529  0.67685087  1
  C  C51  1  0.16449195  0.26218036  0.66083025  1
  H  H52  1  0.38309805  0.10095431  0.70080217  1
  C  C53  1  0.47155506  0.07047260  0.69877170  1
  H  H54  1  0.43453855  0.26363306  0.63479589  1
  C  C55  1  0.12518999  0.36199901  0.65819594  1
  N  N56  1  0.26962204  0.23056619  0.64443314  1
  H  H57  1  0.12684019  0.19165293  0.66732945  1
  C  C58  1  0.20843724  0.43573476  0.64233973  1
  C  C59  1  0.31992892  0.40497479  0.63496324  1
  N  N60  1  0.46814272  0.48315682  0.55126239  1
  H  H61  1  0.24861979  0.47288517  0.50846083  1
  H  H62  1  0.38312891  0.46260585  0.62765494  1
  H  H63  1  0.06630185  0.17632394  0.94669006  1
  C  C64  1  0.06087534  0.25413473  0.79010084  1
  H  H65  1  0.41470008  0.33385029  0.83953097  1
  C  C66  1  0.28320809  0.22409964  0.91174529  1
  N  N67  1  0.46032704  0.26397842  0.95219889  1
  C  C68  1  0.16473602  0.25097809  0.81963405  1
  C  C69  1  0.17088084  0.22721576  0.88021521  1
  H  H70  1  0.13812525  0.39898792  0.92402825  1
  N  N71  1  0.36622597  0.17254943  0.87915960  1
  N  N72  1  0.32035093  0.27273343  0.95969392  1
  C  C73  1  0.45329585  0.36946830  0.79958018  1
  C  C74  1  0.06362090  0.20253305  0.90176734  1
  C  C75  1  0.12221884  0.45636043  0.95684496  1
  C  C76  1  0.46421372  0.20192791  0.90633848  1
  H  H77  1  0.23719576  0.28903977  0.79803725  1
  H  H78  1  0.04653356  0.08288502  0.78688190  1
  H  H79  1  0.21026852  0.02774379  0.85608186  1
  C  C80  1  0.10210780  0.01849181  0.77669719  1
  C  C81  1  0.42781202  0.47303522  0.78516773  1
  N  N82  1  0.29757122  0.49133765  0.87282965  1
  C  C83  1  0.43230010  0.96035985  0.22485237  1
  Cu  Cu84  1  0.20067304  0.63192039  0.11166891  1
  N  N85  1  0.26647887  0.77367908  0.08564113  1
  Cu  Cu86  1  0.21142232  0.61606249  0.22556131  1
  C  C87  1  0.30445669  0.75760399  0.04254285  1
  Cu  Cu88  1  0.43499117  0.62824796  0.11400333  1
  Cu  Cu89  1  0.32135104  0.81772330  0.16274414  1
  N  N90  1  0.49514535  0.57278263  0.04413167  1
  N  N91  1  0.11743570  0.71694526  0.17533785  1
  Cu  Cu92  1  0.14191171  0.81180769  0.23882389  1
  N  N93  1  0.35945495  0.67942353  0.18864753  1
  Cu  Cu94  1  0.12506232  0.82653164  0.11981360  1
  C  C95  1  0.05237709  0.61333728  0.02843925  1
  C  C96  1  0.39007175  0.67597644  0.23711261  1
  H  H97  1  0.00752000  0.66114558  0.05760712  1
  C  C98  1  0.02475079  0.67389317  0.17046405  1
  C  C99  1  0.47200462  0.92032833  0.13225356  1
  N  N100  1  0.20356269  0.50927991  0.16339046  1
  C  C101  1  0.39097222  0.98400874  0.11065866  1
  N  N102  1  0.48834056  0.89957769  0.18816585  1
  N  N103  1  0.01627446  0.51719880  0.04182819  1
  H  H104  1  0.37877048  0.98838709  0.06161922  1
  C  C105  1  0.44845595  0.58703062  0.32400551  1
  H  H106  1  0.46915368  0.94540643  0.27006999  1
  N  N107  1  0.01482762  0.59312973  0.47601131  1
  N  N108  1  0.16349645  0.91438691  0.29913112  1
  H  H109  1  0.28553838  0.94281454  0.43345728  1
  H  H110  1  0.44355109  0.75651770  0.31613739  1
  C  C111  1  0.22609965  0.89616374  0.34525077  1
  C  C112  1  0.42990497  0.67815856  0.29424618  1
  H  H113  1  0.25809105  0.81829041  0.34574196  1
  H  H114  1  0.42583134  0.51181487  0.30668824  1
  C  C115  1  0.24731875  0.96287850  0.39128664  1
  N  N116  1  0.48157411  0.80117455  0.40538378  1
  H  H117  1  0.05695022  0.80527983  0.45169919  1
  C  C118  1  0.49693425  0.60482437  0.38007090  1
  C  C119  1  0.11303979  0.50464081  0.29578413  1
  C  C120  1  0.11712927  0.57517279  0.49719788  1
  H  H121  1  0.45024621  0.77104994  0.63179264  1
  C  C122  1  0.43392233  0.91214714  0.59031735  1
  C  C123  1  0.16056412  0.88312306  0.71121057  1
  N  N124  1  0.10255235  0.69103226  0.61521313  1
  C  C125  1  0.39086646  0.81820337  0.60638126  1
  N  N126  1  0.08521330  0.59436165  0.62966031  1
  N  N127  1  0.27013413  0.61649814  0.62380562  1
  N  N128  1  0.38330537  0.98886308  0.56398651  1
  C  C129  1  0.21530960  0.70645661  0.61432911  1
  C  C130  1  0.21480005  0.88326298  0.57098912  1
  C  C131  1  0.27342907  0.80434770  0.59908670  1
  H  H132  1  0.15525317  0.84312423  0.66918887  1
  H  H133  1  0.47771320  0.60171119  0.73440391  1
  C  C134  1  0.18966680  0.54835876  0.63317920  1
  N  N135  1  0.49138429  0.58290180  0.55471508  1
  H  H136  1  0.12300376  0.88506232  0.56258429  1
  C  C137  1  0.48221281  0.51997679  0.73875985  1
  H  H138  1  0.16271441  0.63751402  0.51905938  1
  C  C139  1  0.27472544  0.97016279  0.55502969  1
  C  C140  1  0.08873384  0.96907181  0.72161965  1
  H  H141  1  0.44268022  0.91549724  0.73006421  1
  H  H142  1  0.28125665  0.78296883  0.75662454  1
  N  N143  1  0.29970600  0.66265013  0.87691182  1
  H  H144  1  0.16218243  0.71303890  0.97825760  1
  C  C145  1  0.25583210  0.57267946  0.90191298  1
  N  N146  1  0.06973943  0.94342039  0.96799563  1
  C  C147  1  0.07215535  0.64769015  0.78848898  1
  N  N148  1  0.37311128  0.63651902  0.83604907  1
  C  C149  1  0.17478918  0.55333931  0.94942687  1
  N  N150  1  0.25085766  0.90762709  0.80409734  1
  C  C151  1  0.23167290  0.85039315  0.75616986  1
  C  C152  1  0.36153137  0.53045092  0.83026962  1
  C  C153  1  0.31483148  0.96209144  0.96931917  1
  H  H154  1  0.29982934  0.83371877  0.91061762  1
  C  C155  1  0.25005695  0.88866770  0.93795418  1
  H  H156  1  0.08130578  0.83604050  0.90427689  1
  C  C157  1  0.13441064  0.88692543  0.93309860  1
  C  C158  1  0.13450336  0.63442538  0.98601402  1
  C  C159  1  0.19048642  0.99227266  0.81371428  1
  N  N160  1  0.06177029  0.55219441  0.80555985  1
  C  C161  1  0.43917973  0.96839943  0.97380987  1
  H  H162  1  0.49416617  0.60221477  0.90386786  1
  H  H163  1  0.16051522  0.65839975  0.79515024  1
  H  H164  1  0.00277999  0.78799744  0.75580947  1
  H  H165  1  0.67713526  0.12093247  0.06828536  1
  C  C166  1  0.53834730  0.31686204  0.21011497  1
  N  N167  1  0.65052793  0.47629377  0.18475961  1
  C  C168  1  0.93612701  0.16631992  0.12956159  1
  N  N169  1  0.66872197  0.38013000  0.06935999  1
  N  N170  1  0.67757776  0.14926337  0.15151595  1
  Cu  Cu171  1  0.54283073  0.31770279  0.01328322  1
  C  C172  1  0.89174357  0.30792261  0.18254395  1
  Cu  Cu173  1  0.73655609  0.35507081  0.14580004  1
  C  C174  1  0.59294773  0.39383637  0.19939027  1
  C  C175  1  0.74333045  0.14064392  0.10297587  1
  Cu  Cu176  1  0.53281349  0.42122904  0.12258578  1
  C  C177  1  0.75757557  0.16374826  0.18766501  1
  H  H178  1  0.88146926  0.14105482  0.03634208  1
  H  H179  1  0.92966371  0.16476443  0.22547601  1
  C  C180  1  0.69700311  0.42774109  0.02879459  1
  N  N181  1  0.90310980  0.39412467  0.17759642  1
  C  C182  1  0.88111558  0.19478926  0.18849405  1
  C  C183  1  0.85845787  0.15070116  0.08427821  1
  Cu  Cu184  1  0.51671484  0.12445311  0.16883216  1
  H  H185  1  0.70687288  0.17943374  0.22458303  1
  Cu  Cu186  1  0.79407614  0.49332339  0.22580097  1
  Cu  Cu187  1  0.89056357  0.48576966  0.10185161  1
  N  N188  1  0.50276220  0.03200013  0.01004866  1
  C  C189  1  0.94121649  0.41805603  0.31475323  1
  H  H190  1  0.99099248  0.35351124  0.30427434  1
  C  C191  1  0.75110792  0.04334766  0.31247744  1
  C  C192  1  0.83404679  0.40191449  0.33961840  1
  C  C193  1  0.75392775  0.14647046  0.33716447  1
  N  N194  1  0.83525352  0.21548357  0.32935280  1
  H  H195  1  0.96184977  0.36800839  0.41111841  1
  N  N196  1  0.68364311  0.28514519  0.37218055  1
  C  C197  1  0.78717902  0.30275084  0.34750025  1
  N  N198  1  0.66095159  0.18671788  0.36502009  1
  C  C199  1  0.90948263  0.00288245  0.44614909  1
  C  C200  1  0.75749440  0.48916920  0.35460274  1
  H  H201  1  0.91586563  0.04505332  0.27302696  1
  H  H202  1  0.94154294  0.08122153  0.44942105  1
  H  H203  1  0.72909085  0.02138286  0.43852403  1
  H  H204  1  0.69404333  0.48208671  0.39052913  1
  C  C205  1  0.99996755  0.41898815  0.44430497  1
  C  C206  1  0.85623489  0.29753479  0.66824818  1
  C  C207  1  0.56735360  0.43177076  0.55490461  1
  C  C208  1  0.54726960  0.46079328  0.70134620  1
  H  H209  1  0.70109298  0.17262845  0.64584283  1
  C  C210  1  0.93407202  0.13045273  0.63079124  1
  C  C211  1  0.50349424  0.24963113  0.52528456  1
  C  C212  1  0.90347056  0.24065941  0.62139551  1
  C  C213  1  0.93550160  0.29302761  0.57052222  1
  N  N214  1  0.87111678  0.45173784  0.61264916  1
  H  H215  1  0.83881200  0.26100011  0.71023815  1
  N  N216  1  0.56492029  0.36206028  0.71193261  1
  C  C217  1  0.65063930  0.10839470  0.66446833  1
  N  N218  1  0.96096354  0.05795769  0.58843609  1
  C  C219  1  0.91894336  0.39700975  0.57043534  1
  H  H220  1  0.75916370  0.32079369  0.57784303  1
  C  C221  1  0.83515776  0.40091826  0.65768187  1
  H  H222  1  0.79028994  0.45565743  0.68763388  1
  C  C223  1  0.69363581  0.27753255  0.55533030  1
  N  N224  1  0.63400986  0.10625922  0.52589460  1
  C  C225  1  0.58744332  0.31777272  0.54434435  1
  C  C226  1  0.70883209  0.17370392  0.54415811  1
  N  N227  1  0.96000766  0.10222033  0.68531212  1
  C  C228  1  0.69287904  0.01190979  0.67725380  1
  H  H229  1  0.78344504  0.13268495  0.55213306  1
  N  N230  1  0.54732911  0.13730903  0.67548076  1
  C  C231  1  0.53735158  0.15004981  0.51346267  1
  H  H232  1  0.98961760  0.25793334  0.53590311  1
  H  H233  1  0.94112522  0.45016086  0.53385058  1
  H  H234  1  0.58988174  0.49370521  0.66289826  1
  N  N235  1  0.65288820  0.49495800  0.56345131  1
  N  N236  1  0.72155081  0.45996245  0.87441356  1
  C  C237  1  0.57638380  0.16831710  0.87680278  1
  H  H238  1  0.85458050  0.39541642  0.90859468  1
  H  H239  1  0.65486921  0.31781591  0.87030358  1
  C  C240  1  0.74525429  0.19959256  0.82082114  1
  N  N241  1  0.74540126  0.11063269  0.79396454  1
  N  N242  1  0.96522276  0.22935501  0.81283377  1
  C  C243  1  0.58004998  0.07263671  0.84832023  1
  C  C244  1  0.67025375  0.04549472  0.81313810  1
  C  C245  1  0.96155920  0.20924506  0.87126833  1
  C  C246  1  0.53213506  0.32347925  0.76247895  1
  C  C247  1  0.66065322  0.23795096  0.85920433  1
  H  H248  1  0.87929797  0.18315842  0.88733091  1
  C  C249  1  0.77774189  0.44061135  0.91505450  1
  N  N250  1  0.60982524  0.01853178  0.99720493  1
  H  H251  1  0.81805606  0.23812757  0.80192167  1
  H  H252  1  0.57011808  0.25135922  0.77019084  1
  H  H253  1  0.95547464  0.43604706  0.81683009  1
  H  H254  1  0.78275397  0.04058897  0.90260003  1
  C  C255  1  0.73305164  0.48801688  0.97617168  1
  H  H256  1  0.50695387  0.02285527  0.86096856  1
  N  N257  1  0.64955900  0.67751053  0.04035610  1
  H  H258  1  0.69964396  0.90933326  0.16202181  1
  Cu  Cu259  1  0.57505404  0.58562178  0.22684356  1
  C  C260  1  0.86225104  0.93618157  0.13046544  1
  N  N261  1  0.56498009  0.70870427  0.13003410  1
  H  H262  1  0.88532018  0.99236101  0.16257179  1
  N  N263  1  0.84000163  0.58676548  0.16412630  1
  Cu  Cu264  1  0.58486916  0.77962758  0.20093379  1
  C  C265  1  0.93379469  0.63052977  0.16680952  1
  C  C266  1  0.75840586  0.88379136  0.12923445  1
  C  C267  1  0.92529445  0.83327356  0.05612825  1
  C  C268  1  0.73825206  0.79864440  0.09480451  1
  C  C269  1  0.63698121  0.72495979  0.09068140  1
  H  H270  1  0.99301107  0.83742178  0.02027390  1
  C  C271  1  0.82227561  0.78399713  0.05127252  1
  C  C272  1  0.58575944  0.60285707  0.01969060  1
  N  N273  1  0.94512305  0.90755287  0.09512626  1
  Cu  Cu274  1  0.69577376  0.56885418  0.12012965  1
  Cu  Cu275  1  0.78385379  0.70827632  0.21070286  1
  H  H276  1  0.52136976  0.86267037  0.10209898  1
  H  H277  1  0.89569821  0.86567779  0.22441979  1
  H  H278  1  0.80245185  0.73791824  0.01027407  1
  N  N279  1  0.74296785  0.83598553  0.25645639  1
  N  N280  1  0.64778642  0.72368534  0.40060415  1
  C  C281  1  0.73367255  0.56285588  0.31548922  1
  C  C282  1  0.80182628  0.96808466  0.43640083  1
  C  C283  1  0.86976392  0.79710175  0.42766515  1
  H  H284  1  0.86005105  0.71530803  0.42164813  1
  C  C285  1  0.66249224  0.87662152  0.29016239  1
  C  C286  1  0.66132235  0.82172910  0.41626419  1
  H  H287  1  0.68056596  0.69486944  0.30002554  1
  C  C288  1  0.65844530  0.97214515  0.31684035  1
  N  N289  1  0.70658523  0.63228185  0.27699050  1
  C  C290  1  0.82751644  0.90418178  0.25194363  1
  C  C291  1  0.77493974  0.86446780  0.42436007  1
  H  H292  1  0.59553475  0.81882366  0.29442031  1
  H  H293  1  0.87596845  0.54574115  0.43362871  1
  C  C294  1  0.95851586  0.51599289  0.45186838  1
  N  N295  1  0.56003808  0.87104828  0.41741740  1
  N  N296  1  0.99371158  0.93672408  0.44936682  1
  H  H297  1  0.96254303  0.58972459  0.29770295  1
  H  H298  1  0.58876505  0.98540939  0.34755617  1
  C  C299  1  0.53604587  0.71085888  0.39610658  1
  C  C300  1  0.97496794  0.84050061  0.44064646  1
  H  H301  1  0.55292506  0.52581546  0.46074608  1
  C  C302  1  0.84060899  0.99660157  0.27853125  1
  C  C303  1  0.50928530  0.51788299  0.41797705  1
  C  C304  1  0.99807159  0.51154116  0.30571823  1
  H  H305  1  0.54637080  0.78009526  0.53493765  1
  N  N306  1  0.76773306  0.82119227  0.72579002  1
  N  N307  1  0.80868063  0.85649762  0.57663725  1
  N  N308  1  0.99940603  0.97943303  0.61912037  1
  C  C309  1  0.60295164  0.58896282  0.56159657  1
  C  C310  1  0.70259014  0.85962877  0.55754388  1
  H  H311  1  0.93730100  0.77588221  0.60967357  1
  C  C312  1  0.78735456  0.67768108  0.58891853  1
  C  C313  1  0.84951931  0.76801715  0.59438246  1
  C  C314  1  0.67699057  0.68160813  0.56644508  1
  H  H315  1  0.82580453  0.60809736  0.60437733  1
  H  H316  1  0.67574678  0.93631243  0.54288174  1
  C  C317  1  0.63003916  0.77672930  0.55228331  1
  C  C318  1  0.65598644  0.83878758  0.71948577  1
  C  C319  1  0.77145455  0.72287086  0.74360544  1
  C  C320  1  0.61515891  0.93972388  0.70006608  1
  H  H321  1  0.51668499  0.93991422  0.59592922  1
  H  H322  1  0.78387219  0.99719280  0.66806179  1
  N  N323  1  0.59552087  0.75163802  0.73282065  1
  C  C324  1  0.50270013  0.96964543  0.71001142  1
  N  N325  1  0.66764546  0.67743322  0.74581457  1
  N  N326  1  0.90746046  0.80876568  0.87635133  1
  C  C327  1  0.62586205  0.55061394  0.96451513  1
  H  H328  1  0.83476806  0.66735268  0.88275719  1
  C  C329  1  0.82386945  0.74972868  0.89444271  1
  C  C330  1  0.90138069  0.90967768  0.88509818  1
  N  N331  1  0.50633358  0.91350527  0.93786382  1
  C  C332  1  0.87627651  0.66714481  0.76300465  1
  H  H333  1  0.78521682  0.52854642  0.78893242  1
  C  C334  1  0.61191261  0.94506742  0.95312421  1
  C  C335  1  0.80205128  0.95700950  0.90510119  1
  C  C336  1  0.57579845  0.56658692  0.91184622  1
  C  C337  1  0.71751415  0.89404774  0.92732903  1
  C  C338  1  0.72647930  0.78783771  0.92137299  1
  H  H339  1  0.65036068  0.74017059  0.93189157  1
  C  C340  1  0.86546474  0.56738418  0.78602099  1
  H  H341  1  0.61829876  0.51599334  0.81610308  1
  H  H342  1  0.98110134  0.94098928  0.86808385  1
  H  H343  1  0.80714196  0.53214361  0.99134311  1
  C  C344  1  0.95937845  0.51341057  0.80209635  1
  H  H345  1  0.69059853  0.97103439  0.79362051  1
  C  C346  1  0.98556812  0.71191069  0.76846974  1
  C  C347  1  0.63574421  0.51606673  0.86384115  1
