# generated using pymatgen
data_ZnH4(C2O)6
_symmetry_space_group_name_H-M   'P 1'
_cell_length_a   19.24952496
_cell_length_b   12.49552618
_cell_length_c   26.92574975
_cell_angle_alpha   90.00000000
_cell_angle_beta   90.00000000
_cell_angle_gamma   90.00000000
_symmetry_Int_Tables_number   1
_chemical_formula_structural   ZnH4(C2O)6
_chemical_formula_sum   'Zn16 H64 C192 O96'
_cell_volume   6476.52982823
_cell_formula_units_Z   16
loop_
 _symmetry_equiv_pos_site_id
 _symmetry_equiv_pos_as_xyz
  1  'x, y, z'
loop_
 _atom_site_type_symbol
 _atom_site_label
 _atom_site_symmetry_multiplicity
 _atom_site_fract_x
 _atom_site_fract_y
 _atom_site_fract_z
 _atom_site_occupancy
  C  C0  1  0.38996312  0.23787371  0.03767739  1
  O  O1  1  0.07253518  0.46074697  0.01776175  1
  O  O2  1  0.10146264  0.19349432  0.20530091  1
  H  H3  1  0.19298426  0.17187384  0.14521452  1
  C  C4  1  0.21617043  0.13312021  0.21941116  1
  C  C5  1  0.38087029  0.20024556  0.08564207  1
  C  C6  1  0.29892856  0.11555558  0.15082391  1
  C  C7  1  0.25934479  0.17864331  0.06947913  1
  C  C8  1  0.27124750  0.21731026  0.02048674  1
  H  H9  1  0.42384333  0.19403449  0.11194772  1
  H  H10  1  0.20550339  0.15166131  0.08023609  1
  C  C11  1  0.31550154  0.16406241  0.10058192  1
  C  C12  1  0.34566673  0.06455763  0.18431098  1
  C  C13  1  0.33090063  0.06265663  0.23594361  1
  C  C14  1  0.23283471  0.14041285  0.16963773  1
  C  C15  1  0.46550090  0.26506430  0.02633330  1
  C  C16  1  0.14313099  0.15698445  0.23306200  1
  C  C17  1  0.41620837  0.01815730  0.17083558  1
  O  O18  1  0.43662818  0.00290881  0.12624875  1
  C  C19  1  0.33677378  0.24368056  0.00311432  1
  C  C20  1  0.22893620  0.18606817  0.40844619  1
  C  C21  1  0.29429785  0.16008435  0.38751526  1
  O  O22  1  0.10689131  0.23995758  0.44766665  1
  C  C23  1  0.25281056  0.12394198  0.30783702  1
  H  H24  1  0.22569957  0.22193066  0.44806128  1
  C  C25  1  0.18052317  0.12418124  0.32854389  1
  H  H26  1  0.15337950  0.04287930  0.32877556  1
  O  O27  1  0.41550901  0.18419213  0.40105693  1
  O  O28  1  0.04965432  0.42593949  0.27713933  1
  C  C29  1  0.35743679  0.19223240  0.41665953  1
  C  C30  1  0.17183762  0.17662222  0.37888072  1
  O  O31  1  0.11888891  0.14207978  0.28483666  1
  C  C32  1  0.10706618  0.21461290  0.40313100  1
  O  O33  1  0.34705383  0.25071558  0.45808750  1
  O  O34  1  0.05091354  0.22109575  0.37819384  1
  Zn  Zn35  1  0.05058476  0.26996666  0.30359698  1
  C  C36  1  0.31066375  0.14224519  0.33769449  1
  H  H37  1  0.36495607  0.12518543  0.32548030  1
  Zn  Zn38  1  0.44500093  0.33265354  0.47549889  1
  H  H39  1  0.37267513  0.03410713  0.26134826  1
  Zn  Zn40  1  0.06101782  0.11890296  0.49829096  1
  O  O41  1  0.03182494  0.00473938  0.44166785  1
  C  C42  1  0.26693225  0.09541227  0.25614692  1
  C  C43  1  0.44110660  0.18080842  0.56754837  1
  C  C44  1  0.38163751  0.43851979  0.59900616  1
  C  C45  1  0.36451991  0.37240728  0.64020853  1
  C  C46  1  0.47659711  0.14930381  0.61328597  1
  O  O47  1  0.38230641  0.45301187  0.51218996  1
  C  C48  1  0.18626266  0.03952305  0.55593579  1
  Zn  Zn49  1  0.29038203  0.20789814  0.52151981  1
  C  C50  1  0.41725890  0.37723659  0.67885373  1
  O  O51  1  0.30666640  0.31855224  0.63951956  1
  C  C52  1  0.34444361  0.43022224  0.54930193  1
  C  C53  1  0.48670215  0.49770541  0.63939249  1
  C  C54  1  0.48017011  0.43584973  0.68099311  1
  O  O55  1  0.23257394  0.07383474  0.52741847  1
  O  O56  1  0.29041065  0.37756769  0.54506628  1
  C  C57  1  0.28510250  0.24376356  0.68441003  1
  O  O58  1  0.38587100  0.13595181  0.55408635  1
  C  C59  1  0.40594453  0.28973168  0.71542104  1
  O  O60  1  0.23189322  0.20077583  0.68394316  1
  O  O61  1  0.12344490  0.07169199  0.55637703  1
  C  C62  1  0.34015033  0.23287003  0.72102518  1
  C  C63  1  0.45113122  0.06430775  0.64253078  1
  C  C64  1  0.48909644  0.03176469  0.68410461  1
  O  O65  1  0.47018534  0.25242406  0.54204580  1
  H  H66  1  0.40249197  0.01925992  0.63347085  1
  C  C67  1  0.21004900  0.23675950  0.98688886  1
  Zn  Zn68  1  0.06333167  0.30372768  0.98011855  1
  C  C69  1  0.36591630  0.01546129  0.92756010  1
  C  C70  1  0.26805207  0.07341339  0.85387223  1
  C  C71  1  0.48338331  0.18474513  0.83460221  1
  C  C72  1  0.43280348  0.20484626  0.79497043  1
  H  H73  1  0.27090424  0.12865680  0.76299524  1
  Zn  Zn74  1  0.20887866  0.44756262  0.92724078  1
  C  C75  1  0.36569555  0.15597613  0.80181206  1
  O  O76  1  0.48338088  0.26945469  0.98293654  1
  O  O77  1  0.14938715  0.21382662  0.99966047  1
  H  H78  1  0.22901618  0.09760627  0.82702401  1
  C  C79  1  0.33773873  0.09797223  0.84555101  1
  C  C80  1  0.05216280  0.43997751  0.88458828  1
  C  C81  1  0.24992379  0.03192503  0.89951480  1
  O  O82  1  0.11362701  0.45587738  0.87296801  1
  C  C83  1  0.39562787  0.05095784  0.87758348  1
  H  H84  1  0.34602195  0.27382454  0.96472270  1
  O  O85  1  0.46758999  0.10757362  0.87436743  1
  C  C86  1  0.45411924  0.26808068  0.75428289  1
  O  O87  1  0.22170116  0.28066833  0.94584666  1
  O  O88  1  0.13423673  0.03386632  0.87227841  1
  O  O89  1  0.47850351  0.00301863  0.96106706  1
  C  C90  1  0.32088822  0.16666540  0.76106746  1
  O  O91  1  0.03011561  0.36355588  0.90965974  1
  C  C92  1  0.29750244  0.00389063  0.93759203  1
  C  C93  1  0.17262298  0.00144995  0.90641749  1
  O  O94  1  0.34033280  0.46665783  0.94897951  1
  C  C95  1  0.10187579  0.66620299  0.14042736  1
  C  C96  1  0.06562002  0.67998860  0.19025790  1
  O  O97  1  0.30221579  0.83257622  0.13174666  1
  H  H98  1  0.17172339  0.78734826  0.16938027  1
  C  C99  1  0.20623643  0.72556987  0.09850575  1
  Zn  Zn100  1  0.40178131  0.88992040  0.07734779  1
  C  C101  1  0.16252889  0.73228568  0.13896937  1
  H  H102  1  0.03243302  0.55656576  0.10027382  1
  C  C103  1  0.02966321  0.77650523  0.20850955  1
  C  C104  1  0.08154595  0.60181154  0.09991044  1
  C  C105  1  0.12612247  0.60638332  0.05876487  1
  C  C106  1  0.18842381  0.66221112  0.05728352  1
  O  O107  1  0.46251456  0.75183888  0.09690969  1
  C  C108  1  0.27493123  0.78622782  0.09609265  1
  C  C109  1  0.07053924  0.59575040  0.22412981  1
  O  O110  1  0.31159552  0.78086708  0.05615511  1
  H  H111  1  0.22061835  0.66459556  0.02521991  1
  C  C112  1  0.11482143  0.53580063  0.01345742  1
  O  O113  1  0.01278478  0.84712406  0.12475425  1
  O  O114  1  0.38724702  0.98126491  0.01161515  1
  C  C115  1  0.00564095  0.85670356  0.17008542  1
  H  H116  1  0.08944416  0.52091212  0.20697871  1
  H  H117  1  0.47039797  0.72711955  0.13132351  1
  O  O118  1  0.45239395  0.98910870  0.20528027  1
  H  H119  1  0.07866670  0.61288076  0.38885987  1
  C  C120  1  0.04687628  0.61002461  0.27239028  1
  C  C121  1  0.01779822  0.72724332  0.34867624  1
  C  C122  1  0.02147115  0.62766901  0.38086692  1
  C  C123  1  0.03341911  0.71615007  0.29592872  1
  C  C124  1  0.02289862  0.79407309  0.25963282  1
  H  H125  1  0.03245634  0.89913236  0.35918479  1
  O  O126  1  0.46418714  0.69326698  0.46672567  1
  C  C127  1  0.01882584  0.82228478  0.37603277  1
  O  O128  1  0.47875166  0.69348844  0.26000497  1
  H  H129  1  0.00250235  0.87133735  0.27052742  1
  C  C130  1  0.00695945  0.81962973  0.42721043  1
  C  C131  1  0.04007515  0.51252198  0.29942956  1
  O  O132  1  0.01955645  0.51235442  0.34821132  1
  C  C133  1  0.01578326  0.75636291  0.62004766  1
  O  O134  1  0.40757919  0.82966655  0.60809630  1
  O  O135  1  0.37195889  0.71203278  0.66246913  1
  C  C136  1  0.10949329  0.79252274  0.68947791  1
  C  C137  1  0.15281962  0.91975046  0.62394460  1
  C  C138  1  0.04338101  0.75217429  0.67435108  1
  C  C139  1  0.27518152  0.91843346  0.59567169  1
  C  C140  1  0.16901791  0.83528849  0.65634490  1
  H  H141  1  0.36486726  0.99478563  0.73614120  1
  C  C142  1  0.28990800  0.83642480  0.62816196  1
  C  C143  1  0.47114258  0.94206101  0.71952653  1
  C  C144  1  0.36372113  0.78471399  0.63410836  1
  C  C145  1  0.20643354  0.95764023  0.59354154  1
  C  C146  1  0.23676931  0.79172513  0.65647432  1
  H  H147  1  0.31137076  0.94938740  0.56866456  1
  O  O148  1  0.05424214  0.78259226  0.58543586  1
  H  H149  1  0.09756336  0.94608143  0.62286331  1
  H  H150  1  0.25076329  0.73494789  0.68536606  1
  C  C151  1  0.40904501  0.94459014  0.74808475  1
  C  C152  1  0.44016897  0.50136663  0.59921356  1
  H  H153  1  0.44928582  0.54890215  0.56568179  1
  C  C154  1  0.12585995  0.80487532  0.73860177  1
  C  C155  1  0.03029630  0.58295512  0.82293493  1
  O  O156  1  0.31231739  0.83571497  0.84727950  1
  O  O157  1  0.05311615  0.78779300  0.86398981  1
  C  C158  1  0.40207340  0.66241828  0.85937886  1
  H  H159  1  0.08620279  0.58301005  0.81317499  1
  C  C160  1  0.40309083  0.86924899  0.78576449  1
  O  O161  1  0.14895405  0.95943574  0.94460124  1
  H  H162  1  0.42254726  0.98196461  0.85756546  1
  C  C163  1  0.45669967  0.79579424  0.79978330  1
  C  C164  1  0.40683429  0.59469512  0.90055854  1
  C  C165  1  0.46081098  0.72446137  0.84546472  1
  Zn  Zn166  1  0.03562257  0.92074961  0.91200171  1
  H  H167  1  0.35458901  0.66595959  0.83658669  1
  C  C168  1  0.07704450  0.77434604  0.77454562  1
  O  O169  1  0.14991868  0.54629951  0.97548988  1
  C  C170  1  0.32322119  0.87247891  0.80652887  1
  C  C171  1  0.09927364  0.77628752  0.82969388  1
  O  O172  1  0.15849041  0.76331472  0.83863302  1
  C  C173  1  0.01408649  0.72435200  0.76114893  1
  O  O174  1  0.27413767  0.90517811  0.77970701  1
  O  O175  1  0.28924420  0.54275493  0.88879941  1
  H  H176  1  0.17669612  0.83692559  0.75061208  1
  C  C177  1  0.46593428  0.58455642  0.93053058  1
  C  C178  1  0.00199833  0.51305826  0.85765780  1
  C  C179  1  0.34225062  0.53431269  0.91604000  1
  H  H180  1  0.28242773  0.96428770  0.97306913  1
  H  H181  1  0.46642260  0.53573588  0.96503315  1
  C  C182  1  0.41327064  0.99941706  0.96897454  1
  H  H183  1  0.71694975  0.33549383  0.11395237  1
  Zn  Zn184  1  0.61522069  0.21805092  0.05979322  1
  H  H185  1  0.91737953  0.19683366  0.14273842  1
  O  O186  1  0.59145981  0.23034379  0.19041577  1
  C  C187  1  0.89117929  0.23704464  0.06697961  1
  O  O188  1  0.66595958  0.35802971  0.03109086  1
  C  C189  1  0.71790126  0.23668517  0.20378131  1
  C  C190  1  0.87895774  0.22965364  0.11769422  1
  C  C191  1  0.72830533  0.35472087  0.01362408  1
  C  C192  1  0.64831337  0.21771163  0.17130416  1
  C  C193  1  0.78205196  0.31114028  0.04832416  1
  O  O194  1  0.65574620  0.17586273  0.12886934  1
  C  C195  1  0.76659895  0.30641492  0.09996555  1
  C  C196  1  0.81291599  0.25686701  0.13416849  1
  C  C197  1  0.78729401  0.23801084  0.18686289  1
  C  C198  1  0.96056774  0.19389281  0.04961867  1
  O  O199  1  0.66679240  0.09114719  0.01380428  1
  C  C200  1  0.83858934  0.24957547  0.22344097  1
  H  H201  1  0.89716967  0.25555203  0.21741044  1
  C  C202  1  0.84746002  0.27963373  0.03120265  1
  O  O203  1  0.98224097  0.21305835  0.00673892  1
  O  O204  1  0.51135175  0.25611094  0.05911591  1
  H  H205  1  0.79729994  0.02211784  0.01865106  1
  O  O206  1  0.99444621  0.14319295  0.08180533  1
  C  C207  1  0.88774787  0.23603324  0.30684907  1
  O  O208  1  0.88534341  0.26898978  0.35053379  1
  C  C209  1  0.63570027  0.30141326  0.40106956  1
  C  C210  1  0.66576872  0.30797649  0.35388108  1
  H  H211  1  0.64273226  0.35612141  0.32466716  1
  H  H212  1  0.80444583  0.15018240  0.37405375  1
  H  H213  1  0.64534380  0.24110928  0.26328897  1
  Zn  Zn214  1  0.91043994  0.43349050  0.36770255  1
  C  C215  1  0.72397839  0.24597316  0.34108980  1
  C  C216  1  0.75822708  0.19728650  0.38159418  1
  C  C217  1  0.82444567  0.25386442  0.27426203  1
  C  C218  1  0.76555912  0.14038650  0.47319361  1
  C  C219  1  0.66943925  0.25106560  0.44006118  1
  C  C220  1  0.56849616  0.36084163  0.41177793  1
  C  C221  1  0.75373978  0.25590038  0.28996251  1
  C  C222  1  0.73279921  0.19625350  0.42925824  1
  O  O223  1  0.94396085  0.20811922  0.28669316  1
  O  O224  1  0.54839324  0.36130286  0.45758470  1
  O  O225  1  0.95118983  0.44562103  0.43648221  1
  H  H226  1  0.65358581  0.25494963  0.47978420  1
  O  O227  1  0.82143076  0.09288448  0.46510256  1
  O  O228  1  0.53660225  0.40321571  0.37837426  1
  C  C229  1  0.70110028  0.24740095  0.25318821  1
  O  O230  1  0.83691553  0.49366572  0.30882483  1
  C  C231  1  0.84939778  0.38785898  0.66996332  1
  C  C232  1  0.57697338  0.16612947  0.66625901  1
  C  C233  1  0.64269629  0.23104966  0.68106929  1
  H  H234  1  0.58600586  0.03781665  0.72382132  1
  C  C235  1  0.84840810  0.40265089  0.61405544  1
  C  C236  1  0.86541488  0.23771698  0.73545258  1
  H  H237  1  0.55199287  0.28060036  0.61047284  1
  O  O238  1  0.66273920  0.30962878  0.65185317  1
  C  C239  1  0.53832853  0.20437142  0.62913200  1
  C  C240  1  0.87048266  0.27452480  0.68458469  1
  C  C241  1  0.90064092  0.20119861  0.65264477  1
  Zn  Zn242  1  0.69667099  0.46200204  0.66674515  1
  O  O243  1  0.92500882  0.06082277  0.57242037  1
  O  O244  1  0.78583582  0.43830590  0.70476388  1
  C  C245  1  0.55380235  0.07767679  0.69418225  1
  H  H246  1  0.89204595  0.35403818  0.54262352  1
  O  O247  1  0.73885381  0.14665023  0.51369761  1
  H  H248  1  0.88172039  0.44886130  0.68991157  1
  C  C249  1  0.90798558  0.24054083  0.60356777  1
  C  C250  1  0.88467883  0.33622442  0.58225008  1
  O  O251  1  0.66671461  0.20595525  0.71965633  1
  O  O252  1  0.96818067  0.18951885  0.52815268  1
  H  H253  1  0.91428343  0.11799213  0.66295437  1
  C  C254  1  0.93422492  0.15870347  0.56563804  1
  H  H255  1  0.95041693  0.11892742  0.73261380  1
  C  C256  1  0.80742089  0.49130065  0.59608238  1
  H  H257  1  0.52261559  0.42877304  0.71176305  1
  C  C258  1  0.89773551  0.07650205  0.91315765  1
  O  O259  1  0.53906112  0.22963144  0.83862363  1
  Zn  Zn260  1  0.53529528  0.15024296  0.93772936  1
  H  H261  1  0.72556946  0.16646092  0.88901956  1
  C  C262  1  0.75829320  0.09989433  0.95595242  1
  H  H263  1  0.91330071  0.45021634  0.89715999  1
  C  C264  1  0.84900532  0.16954235  0.83755669  1
  C  C265  1  0.81072369  0.04347306  0.98090989  1
  H  H266  1  0.76631727  0.28739848  0.84031903  1
  C  C267  1  0.77141087  0.13625460  0.90728445  1
  C  C268  1  0.80655198  0.25068548  0.81641152  1
  C  C269  1  0.83634876  0.13024522  0.88729551  1
  C  C270  1  0.81723403  0.29348540  0.76964099  1
  C  C271  1  0.68344260  0.11770479  0.97183382  1
  C  C272  1  0.90146115  0.12286480  0.80410991  1
  C  C273  1  0.95137528  0.04814588  0.82389812  1
  C  C274  1  0.91051822  0.15628874  0.75458402  1
  O  O275  1  0.64157437  0.16781434  0.94334802  1
  H  H276  1  0.94702697  0.13140271  0.92042435  1
  O  O277  1  0.74116028  0.39410788  0.97302458  1
  O  O278  1  0.71886432  0.40731687  0.77893225  1
  C  C279  1  0.76985441  0.38084348  0.75676372  1
  O  O280  1  0.95134619  0.01340912  0.87505071  1
  C  C281  1  0.87526229  0.02397666  0.96163749  1
  H  H282  1  0.50654883  0.29476135  0.75361973  1
  O  O283  1  0.99161820  0.01463636  0.79455673  1
  H  H284  1  0.85916218  0.29346841  0.99159798  1
  H  H285  1  0.76274133  0.56808284  0.16142239  1
  C  C286  1  0.65370292  0.62030209  0.17904377  1
  C  C287  1  0.59012915  0.67001443  0.15919355  1
  O  O288  1  0.53665138  0.69998560  0.18566142  1
  C  C289  1  0.59107204  0.69431327  0.10801914  1
  C  C290  1  0.65010828  0.67930854  0.07735726  1
  C  C291  1  0.65605481  0.59796619  0.23224368  1
  C  C292  1  0.77272811  0.61771997  0.06725090  1
  C  C293  1  0.71104882  0.59774471  0.14926157  1
  C  C294  1  0.70605239  0.62926775  0.09994059  1
  O  O295  1  0.82443580  0.57815838  0.08507071  1
  H  H296  1  0.65197818  0.70012254  0.03618543  1
  Zn  Zn297  1  0.96077922  0.98927513  0.09602019  1
  O  O298  1  0.76940576  0.65757150  0.02414827  1
  O  O299  1  0.90720318  0.93956968  0.03519974  1
  H  H300  1  0.75995082  0.52908004  0.23981068  1
  C  C301  1  0.53471403  0.73190987  0.07539458  1
  O  O302  1  0.54427325  0.76025615  0.03382909  1
  C  C303  1  0.53088264  0.67180141  0.23982638  1
  O  O304  1  0.98105951  0.94167560  0.18347279  1
  C  C305  1  0.59677532  0.62937885  0.26166901  1
  C  C306  1  0.64596828  0.76352939  0.47605362  1
  C  C307  1  0.59818252  0.62975598  0.31396221  1
  O  O308  1  0.83145895  0.81940746  0.44518633  1
  C  C309  1  0.98916622  0.63209033  0.43044704  1
  C  C310  1  0.71833370  0.56333839  0.31109474  1
  C  C311  1  0.65854584  0.63444893  0.39269844  1
  C  C312  1  0.96241822  0.53677604  0.45956711  1
  C  C313  1  0.71700410  0.69173866  0.41240477  1
  H  H314  1  0.54718393  0.59697416  0.40349190  1
  C  C315  1  0.66193471  0.60326012  0.33913685  1
  H  H316  1  0.76784314  0.69710471  0.39304339  1
  H  H317  1  0.55501281  0.66269189  0.33470531  1
  C  C318  1  0.78504415  0.52587724  0.33497503  1
  C  C319  1  0.59439019  0.63760401  0.41883681  1
  C  C320  1  0.71124912  0.75325168  0.45401883  1
  H  H321  1  0.96973987  0.73257176  0.49416661  1
  C  C322  1  0.77843743  0.81534315  0.46963101  1
  C  C323  1  0.58758944  0.70867110  0.45857218  1
  C  C324  1  0.51651064  0.73479833  0.48115708  1
  C  C325  1  0.98866847  0.72791507  0.45540017  1
  C  C326  1  0.99987103  0.92285286  0.45692602  1
  O  O327  1  0.78800503  0.50802658  0.37939381  1
  O  O328  1  0.96883269  0.92174476  0.49729623  1
  C  C329  1  0.71527050  0.56274480  0.25949380  1
  O  O330  1  0.51416659  0.80876233  0.51450158  1
  C  C331  1  0.52031102  0.85766924  0.72649362  1
  C  C332  1  0.58216723  0.82653092  0.69228613  1
  O  O333  1  0.63174972  0.78458126  0.70990084  1
  O  O334  1  0.58164847  0.85126707  0.64706714  1
  O  O335  1  0.60010879  0.55142893  0.66556308  1
  O  O336  1  0.55867125  0.62251255  0.59678645  1
  O  O337  1  0.95329855  0.74126005  0.61362696  1
  C  C338  1  0.55188023  0.56446232  0.63450378  1
  H  H339  1  0.64208315  0.81868760  0.50707017  1
  O  O340  1  0.77402825  0.55755022  0.61972863  1
  H  H341  1  0.79795707  0.57994165  0.54022021  1
  Zn  Zn342  1  0.86772427  0.97234463  0.51015056  1
  H  H343  1  0.94606169  0.67786900  0.69943627  1
  Zn  Zn344  1  0.51381137  0.77976559  0.59364719  1
  O  O345  1  0.77827143  0.86078999  0.51201573  1
  O  O346  1  0.80881422  0.50468640  0.54332439  1
  O  O347  1  0.95163077  0.54358850  0.50321106  1
  C  C348  1  0.99528392  0.71854378  0.71022762  1
  C  C349  1  0.52484860  0.63650844  0.91183666  1
  C  C350  1  0.90901238  0.65632741  0.81376945  1
  Zn  Zn351  1  0.73446384  0.57398965  0.96278071  1
  H  H352  1  0.87542199  0.72194500  0.79775545  1
  C  C353  1  0.88433110  0.57980666  0.84634130  1
  C  C354  1  0.80696426  0.59251223  0.86016758  1
  H  H355  1  0.57023565  0.75019474  0.86312835  1
  C  C356  1  0.59499444  0.62098747  0.93691580  1
  O  O357  1  0.77252357  0.65442245  0.83687252  1
  O  O358  1  0.98811742  0.95737710  0.98114686  1
  O  O359  1  0.78521459  0.53001772  0.89505283  1
  O  O360  1  0.64801870  0.66560611  0.91959619  1
  H  H361  1  0.55346591  0.73477393  0.77848733  1
  C  C362  1  0.52329977  0.70766053  0.87319531  1
  C  C363  1  0.51555661  0.79540309  0.76813355  1
  C  C364  1  0.92671523  0.96838557  0.99205487  1
  O  O365  1  0.60467749  0.55292106  0.97076024  1
  C  C366  1  0.98058032  0.64838926  0.79992794  1
  C  C367  1  0.93128869  0.51004848  0.87005939  1
