# generated using pymatgen
data_ZnH5C11O4
_symmetry_space_group_name_H-M   'P 1'
_cell_length_a   7.48726147
_cell_length_b   20.68912675
_cell_length_c   29.07460207
_cell_angle_alpha   90.00000000
_cell_angle_beta   90.00000000
_cell_angle_gamma   90.00000000
_symmetry_Int_Tables_number   1
_chemical_formula_structural   ZnH5C11O4
_chemical_formula_sum   'Zn16 H80 C176 O64'
_cell_volume   4503.79837523
_cell_formula_units_Z   16
loop_
 _symmetry_equiv_pos_site_id
 _symmetry_equiv_pos_as_xyz
  1  'x, y, z'
loop_
 _atom_site_type_symbol
 _atom_site_label
 _atom_site_symmetry_multiplicity
 _atom_site_fract_x
 _atom_site_fract_y
 _atom_site_fract_z
 _atom_site_occupancy
  H  H0  1  0.46328786  0.23382434  0.16062121  1
  H  H1  1  0.20741231  0.44218043  0.16322651  1
  C  C2  1  0.45247280  0.33769556  0.15101961  1
  C  C3  1  0.35279027  0.36066445  0.19469797  1
  O  O4  1  0.11181698  0.26710542  0.07470903  1
  H  H5  1  0.45873702  0.43665846  0.12820048  1
  O  O6  1  0.21442046  0.33850167  0.02509384  1
  C  C7  1  0.13818676  0.04214439  0.07894633  1
  O  O8  1  0.24278112  0.03581258  0.04521473  1
  C  C9  1  0.22432380  0.41212332  0.19523795  1
  C  C10  1  0.37812553  0.32565265  0.23619510  1
  C  C11  1  0.03526091  0.37178011  0.09197448  1
  C  C12  1  0.12313594  0.32484845  0.06042009  1
  C  C13  1  0.49019976  0.38637333  0.11932547  1
  H  H14  1  0.07342155  0.45027311  0.04247888  1
  C  C15  1  0.03306435  0.43502505  0.07661086  1
  O  O16  1  0.09879807  0.09481309  0.09573151  1
  H  H17  1  0.46876675  0.28469995  0.23661851  1
  Zn  Zn18  1  0.02086592  0.17814011  0.05175986  1
  C  C19  1  0.15423010  0.43550412  0.23743035  1
  H  H20  1  0.04938362  0.47222366  0.23590388  1
  C  C21  1  0.45160805  0.43069691  0.44351313  1
  C  C22  1  0.11949410  0.00107127  0.37607434  1
  O  O23  1  0.43842738  0.47983195  0.42048388  1
  C  C24  1  0.11408020  0.41880479  0.32623228  1
  H  H25  1  0.17254456  0.31740627  0.34663720  1
  O  O26  1  0.05832602  0.26988498  0.41880517  1
  O  O27  1  0.13922234  0.09047602  0.43328244  1
  C  C28  1  0.19269464  0.40272485  0.28025034  1
  C  C29  1  0.30312344  0.34784098  0.27777434  1
  C  C30  1  0.13188179  0.07155404  0.38771805  1
  C  C31  1  0.05906320  0.48073214  0.34024540  1
  C  C32  1  0.00197601  0.32265594  0.43285494  1
  H  H33  1  0.33310877  0.32132459  0.31069349  1
  O  O34  1  0.43366661  0.42706102  0.48701065  1
  H  H35  1  0.43689803  0.29705981  0.46744104  1
  C  C36  1  0.10504488  0.36514214  0.35633522  1
  Zn  Zn37  1  0.40773442  0.06850721  0.46321776  1
  H  H38  1  0.18340850  0.02056600  0.30478467  1
  O  O39  1  0.12983319  0.11448341  0.36031522  1
  C  C40  1  0.03090809  0.37686670  0.39918061  1
  O  O41  1  0.48037638  0.17210880  0.45437505  1
  C  C42  1  0.49932097  0.30894916  0.43396207  1
  O  O43  1  0.08596488  0.40198240  0.58907071  1
  C  C44  1  0.10987008  0.01889762  0.62842812  1
  C  C45  1  0.12466194  0.13804349  0.61672502  1
  C  C46  1  0.19198031  0.15231590  0.70903842  1
  H  H47  1  0.16530706  0.49268715  0.65506145  1
  H  H48  1  0.18708073  0.18472427  0.62490034  1
  C  C49  1  0.25101974  0.09168801  0.68920414  1
  O  O50  1  0.40476718  0.29617429  0.54038597  1
  C  C51  1  0.34599664  0.04331526  0.71430727  1
  C  C52  1  0.15376943  0.08194337  0.64439872  1
  H  H53  1  0.41087057  0.18042627  0.54396951  1
  C  C54  1  0.46969272  0.05673320  0.57054650  1
  O  O55  1  0.48990314  0.00269504  0.58870349  1
  Zn  Zn56  1  0.13624224  0.32790118  0.53693718  1
  O  O57  1  0.37455574  0.06620927  0.53545495  1
  H  H58  1  0.09997975  0.18725038  0.69277859  1
  O  O59  1  0.00916110  0.24329944  0.56189625  1
  C  C60  1  0.48402587  0.17977501  0.57713700  1
  C  C61  1  0.01268579  0.01242282  0.58744178  1
  C  C62  1  0.01615469  0.12977212  0.57822914  1
  C  C63  1  0.01408029  0.45028770  0.57057453  1
  H  H64  1  0.16039840  0.20731439  0.77067878  1
  C  C65  1  0.09583219  0.18284023  0.94903252  1
  C  C66  1  0.06640439  0.13171058  0.91352686  1
  C  C67  1  0.38954449  0.05925627  0.75997103  1
  O  O68  1  0.14576995  0.16409942  0.98819185  1
  C  C69  1  0.34313072  0.12145202  0.77916515  1
  C  C70  1  0.11813050  0.06800593  0.92441143  1
  H  H71  1  0.16818000  0.05764266  0.95858521  1
  C  C72  1  0.44054382  0.10625254  0.86107891  1
  H  H73  1  0.45808838  0.05502255  0.85578525  1
  Zn  Zn74  1  0.16185700  0.33060754  0.95679314  1
  C  C75  1  0.08296885  0.01720353  0.89425140  1
  H  H76  1  0.38647370  0.24982370  0.79933406  1
  C  C77  1  0.43977982  0.23887432  0.87523791  1
  C  C78  1  0.39245029  0.21807089  0.83078002  1
  C  C79  1  0.39437379  0.14994590  0.82498671  1
  O  O80  1  0.42324181  0.33969355  0.92227142  1
  O  O81  1  0.04381426  0.42726557  0.94204935  1
  O  O82  1  0.06550900  0.24087186  0.93996073  1
  C  C83  1  0.48491701  0.13344798  0.90318590  1
  C  C84  1  0.45245897  0.31245363  0.87947182  1
  C  C85  1  0.22675592  0.16548771  0.75458148  1
  O  O86  1  0.42839549  0.34485655  0.84591644  1
  C  C87  1  0.47586832  0.19811168  0.91318409  1
  C  C88  1  0.00139064  0.03025389  0.85122307  1
  H  H89  1  0.49689468  0.21766268  0.94736905  1
  H  H90  1  0.47065200  0.02593433  0.78103695  1
  C  C91  1  0.32875943  0.86337797  0.18374881  1
  C  C92  1  0.37393168  0.77546120  0.12093925  1
  H  H93  1  0.29180122  0.74068054  0.13993489  1
  C  C94  1  0.39589558  0.83953730  0.13707064  1
  H  H95  1  0.11998182  0.93944416  0.03333675  1
  H  H96  1  0.18497545  0.77000946  0.19762669  1
  C  C97  1  0.07312479  0.92814673  0.06685609  1
  C  C98  1  0.22093672  0.81985652  0.21067107  1
  C  C99  1  0.05245910  0.80644690  0.05083511  1
  O  O100  1  0.11709642  0.81431873  0.01075389  1
  Zn  Zn101  1  0.07893683  0.66307161  0.04536330  1
  C  C102  1  0.05788810  0.97936139  0.09769757  1
  O  O103  1  0.33968468  0.65594237  0.07684978  1
  C  C104  1  0.46871035  0.68812244  0.06503388  1
  C  C105  1  0.38239470  0.92611682  0.19896846  1
  C  C106  1  0.46910967  0.75852865  0.08094551  1
  H  H107  1  0.46776661  0.94070668  0.12036707  1
  C  C108  1  0.47249227  0.88939392  0.11041635  1
  H  H109  1  0.46788660  0.96118431  0.18025258  1
  C  C110  1  0.03055352  0.86396239  0.08024148  1
  C  C111  1  0.31431098  0.94715157  0.24108512  1
  C  C112  1  0.14770572  0.98609032  0.33010441  1
  C  C113  1  0.22235680  0.90318663  0.27077091  1
  H  H114  1  0.41764973  0.81254870  0.45597691  1
  H  H115  1  0.09223930  0.52075469  0.31706675  1
  O  O116  1  0.33731874  0.69075759  0.44222560  1
  O  O117  1  0.03109728  0.78365020  0.41601069  1
  C  C118  1  0.00884380  0.84173770  0.42870079  1
  H  H119  1  0.14148487  0.82247382  0.34257622  1
  O  O120  1  0.39459070  0.92488453  0.47732087  1
  C  C121  1  0.14961642  0.92005303  0.31880943  1
  H  H122  1  0.03716999  0.96696418  0.44412425  1
  C  C123  1  0.46438722  0.81843758  0.42121301  1
  C  C124  1  0.11585855  0.87133421  0.34986086  1
  O  O125  1  0.00776207  0.60338740  0.38983281  1
  C  C126  1  0.43400196  0.69708337  0.40704334  1
  C  C127  1  0.06364393  0.89055632  0.39468798  1
  H  H128  1  0.35206843  0.99607549  0.25206104  1
  Zn  Zn129  1  0.05700355  0.68057935  0.43865028  1
  C  C130  1  0.06595335  0.95460341  0.40820678  1
  C  C131  1  0.46609452  0.93643713  0.43847416  1
  C  C132  1  0.48509159  0.76737672  0.39163092  1
  C  C133  1  0.49810782  0.88190271  0.40485933  1
  H  H134  1  0.11009376  0.80435269  0.27827733  1
  C  C135  1  0.18275112  0.83926201  0.25566844  1
  C  C136  1  0.33741629  0.58537456  0.71990225  1
  H  H137  1  0.41840488  0.54623120  0.70448486  1
  C  C138  1  0.45434254  0.80347445  0.57603573  1
  C  C139  1  0.45731465  0.68692759  0.56732729  1
  C  C140  1  0.13592956  0.59896878  0.64573786  1
  O  O141  1  0.36976032  0.80409891  0.53740316  1
  H  H142  1  0.39535717  0.69482418  0.53295579  1
  C  C143  1  0.10599050  0.67070052  0.71394364  1
  C  C144  1  0.21104331  0.61994323  0.69314445  1
  C  C145  1  0.12849985  0.53420838  0.63083322  1
  H  H146  1  0.11247043  0.69813215  0.62290495  1
  C  C147  1  0.08099223  0.64741642  0.61541844  1
  Zn  Zn148  1  0.10312162  0.82676224  0.53014062  1
  C  C149  1  0.47285567  0.56633043  0.54858329  1
  H  H150  1  0.15729218  0.97415737  0.64656632  1
  O  O151  1  0.42963419  0.57349153  0.50757266  1
  O  O152  1  0.03181957  0.89910646  0.58592800  1
  C  C153  1  0.02565225  0.63237959  0.57090896  1
  H  H154  1  0.00903071  0.69468717  0.69212297  1
  C  C155  1  0.05005361  0.51672563  0.58889272  1
  H  H156  1  0.38271360  0.99665780  0.69908238  1
  C  C157  1  0.00638535  0.56749806  0.55919428  1
  C  C158  1  0.48921150  0.62216809  0.58035140  1
  C  C159  1  0.48771286  0.73875514  0.59812093  1
  O  O160  1  0.07962476  0.73356930  0.92156790  1
  O  O161  1  0.20594628  0.93927313  0.94495619  1
  H  H162  1  0.11449473  0.55055497  0.95254387  1
  C  C163  1  0.27633139  0.66157641  0.78399042  1
  H  H164  1  0.06174978  0.73722203  0.77046222  1
  C  C165  1  0.05369448  0.62246963  0.90101659  1
  C  C166  1  0.13959209  0.69430671  0.75868335  1
  H  H167  1  0.34932140  0.57341763  0.84197693  1
  C  C168  1  0.11222102  0.94722330  0.90880828  1
  O  O169  1  0.02858172  0.90258292  0.89057498  1
  O  O170  1  0.17225476  0.66139041  0.97007115  1
  C  C171  1  0.04810702  0.56118152  0.92022260  1
  C  C172  1  0.10682620  0.67614365  0.93256548  1
  C  C173  1  0.41921398  0.73672564  0.84674275  1
  C  C174  1  0.36404367  0.67599301  0.83030201  1
  C  C175  1  0.39825520  0.61962794  0.85513182  1
  H  H176  1  0.40898541  0.78150390  0.82744977  1
  O  O177  1  0.46172471  0.51053202  0.91236766  1
  C  C178  1  0.49078627  0.62159553  0.89703665  1
  H  H179  1  0.48641690  0.58917427  0.78609760  1
  Zn  Zn180  1  0.47560143  0.92976754  0.94372773  1
  C  C181  1  0.36959382  0.60869827  0.76552713  1
  O  O182  1  0.53584425  0.47635125  0.05294802  1
  C  C183  1  0.59555429  0.42329396  0.04110392  1
  C  C184  1  0.62539429  0.19071888  0.08306136  1
  C  C185  1  0.81012896  0.37207451  0.20825138  1
  C  C186  1  0.62453916  0.30870591  0.06651566  1
  O  O187  1  0.68319749  0.41034600  0.00565223  1
  C  C188  1  0.69479098  0.41491526  0.23215986  1
  C  C189  1  0.96109951  0.48006797  0.10751188  1
  H  H190  1  0.67365073  0.29481970  0.03200893  1
  C  C191  1  0.88236871  0.39729829  0.16258833  1
  O  O192  1  0.73580271  0.18789185  0.04960085  1
  H  H193  1  0.62683708  0.45395706  0.21570561  1
  H  H194  1  0.95264662  0.29980566  0.14179808  1
  C  C195  1  0.88080050  0.46289731  0.14837735  1
  C  C196  1  0.56899503  0.37078494  0.07718347  1
  C  C197  1  0.88472783  0.31647325  0.23051855  1
  H  H198  1  0.97879305  0.01213265  0.16557245  1
  C  C199  1  0.59398634  0.26018577  0.09879094  1
  C  C200  1  0.95006660  0.35095588  0.13140623  1
  H  H201  1  0.97929506  0.28654535  0.21359364  1
  Zn  Zn202  1  0.52284279  0.06670049  0.04403255  1
  C  C203  1  0.51004161  0.27428716  0.14027835  1
  O  O204  1  0.55991665  0.13875067  0.09672141  1
  H  H205  1  0.83930549  0.49948504  0.17216569  1
  C  C206  1  0.64301082  0.39780484  0.27793817  1
  Zn  Zn207  1  0.98176512  0.17320226  0.43915372  1
  O  O208  1  0.71239287  0.15375797  0.40936150  1
  H  H209  1  0.88989724  0.43581681  0.44723855  1
  H  H210  1  0.87984530  0.25221206  0.29391593  1
  C  C211  1  0.70639111  0.33884111  0.29900623  1
  C  C212  1  0.83071715  0.29653474  0.27507112  1
  C  C213  1  0.95662624  0.43506128  0.41305975  1
  H  H214  1  0.57215833  0.43257477  0.35787641  1
  H  H215  1  0.69577606  0.22756805  0.34634363  1
  C  C216  1  0.64083024  0.26701768  0.36470944  1
  C  C217  1  0.63623865  0.32986264  0.34667952  1
  C  C218  1  0.56800015  0.38287865  0.37122905  1
  C  C219  1  0.56929206  0.25791071  0.40814125  1
  H  H220  1  0.55209954  0.42665148  0.29762173  1
  O  O221  1  0.98887275  0.33327788  0.47529600  1
  C  C222  1  0.58576862  0.18873813  0.42425097  1
  C  C223  1  0.50471862  0.37130939  0.41471550  1
  C  C224  1  0.98882093  0.48864621  0.38438702  1
  O  O225  1  0.90486386  0.44372622  0.53755122  1
  H  H226  1  0.62651037  0.06388458  0.65062950  1
  C  C227  1  0.62001311  0.11321844  0.63566405  1
  H  H228  1  0.87725070  0.06168731  0.53452037  1
  C  C229  1  0.66898193  0.16977800  0.66093598  1
  C  C230  1  0.95440918  0.06901472  0.56515792  1
  C  C231  1  0.74147215  0.15120019  0.70751187  1
  O  O232  1  0.89855405  0.17634842  0.51110393  1
  H  H233  1  0.85683841  0.06132403  0.68541517  1
  C  C234  1  0.83305175  0.09166092  0.71486200  1
  C  C235  1  0.97295607  0.18656041  0.54807552  1
  H  H236  1  0.69213315  0.27399821  0.65388618  1
  O  O237  1  0.56467282  0.35511462  0.58488310  1
  C  C238  1  0.64685165  0.22993114  0.63866704  1
  C  C239  1  0.52900972  0.11808829  0.59505327  1
  C  C240  1  0.54207941  0.23644041  0.59708462  1
  Zn  Zn241  1  0.62149433  0.43050951  0.53914947  1
  H  H242  1  0.63361291  0.23826370  0.74250531  1
  C  C243  1  0.70220209  0.19098009  0.74648465  1
  C  C244  1  0.50842519  0.30006804  0.57463063  1
  O  O245  1  0.59272379  0.10285351  0.97560661  1
  Zn  Zn246  1  0.57406644  0.42089781  0.93391957  1
  O  O247  1  0.83316370  0.41177692  0.89121062  1
  C  C248  1  0.86474630  0.11683373  0.79491690  1
  H  H249  1  0.83843563  0.48583158  0.83016020  1
  H  H250  1  0.73271678  0.20310471  0.82251560  1
  C  C251  1  0.95951878  0.09404521  0.83931472  1
  C  C252  1  0.75385656  0.17228737  0.79001759  1
  H  H253  1  0.97631282  0.03001533  0.76062744  1
  C  C254  1  0.95226943  0.44539608  0.90819626  1
  C  C255  1  0.89391449  0.07344247  0.75761690  1
  H  H256  1  0.95367409  0.19440348  0.86407283  1
  C  C257  1  0.98703545  0.14391922  0.87171459  1
  C  C258  1  0.54622258  0.08382187  0.93708325  1
  O  O259  1  0.55684339  0.02665149  0.92243567  1
  H  H260  1  0.67008910  0.81674225  0.16942732  1
  C  C261  1  0.92485168  0.90740969  0.15365774  1
  H  H262  1  0.90871181  0.80370578  0.13142297  1
  C  C263  1  0.85585349  0.92808877  0.23993625  1
  O  O264  1  0.97252038  0.59375694  0.12658890  1
  C  C265  1  0.55666216  0.80488870  0.05572064  1
  H  H266  1  0.60491298  0.79040732  0.02090665  1
  C  C267  1  0.83477749  0.88985085  0.19885405  1
  C  C268  1  0.55091756  0.86968454  0.06954220  1
  C  C269  1  0.94741901  0.85618929  0.12345755  1
  O  O270  1  0.57745624  0.66560940  0.03462172  1
  O  O271  1  0.99320569  0.75283167  0.06477863  1
  C  C272  1  0.71093836  0.84016928  0.20227703  1
  C  C273  1  0.61743396  0.92400502  0.03955734  1
  Zn  Zn274  1  0.64075592  0.57184641  0.03558420  1
  H  H275  1  0.94633169  0.96820998  0.24094587  1
  C  C276  1  0.95562196  0.55274897  0.09786959  1
  C  C277  1  0.99588704  0.97071559  0.14240605  1
  O  O278  1  0.65354326  0.97945534  0.05589350  1
  O  O279  1  0.93429996  0.57381079  0.05539595  1
  C  C280  1  0.62809240  0.82637447  0.24347712  1
  H  H281  1  0.51745678  0.79173421  0.24486827  1
  C  C282  1  0.67326377  0.85612919  0.28652565  1
  H  H283  1  0.57538372  0.73557588  0.32816169  1
  C  C284  1  0.56905347  0.89270935  0.36186437  1
  C  C285  1  0.77948826  0.91362880  0.28303225  1
  C  C286  1  0.93801161  0.55307691  0.40458444  1
  O  O287  1  0.51078963  0.99274010  0.42728087  1
  O  O288  1  0.83925819  0.55482333  0.44039066  1
  H  H289  1  0.61051214  0.94058043  0.35036899  1
  C  C290  1  0.59712108  0.83947430  0.33307017  1
  C  C291  1  0.55860952  0.77504258  0.34905910  1
  H  H292  1  0.80609075  0.93543997  0.31658159  1
  Zn  Zn293  1  0.55049590  0.57458882  0.43864484  1
  O  O294  1  0.95748157  0.85441440  0.46927893  1
  O  O295  1  0.50398988  0.64833471  0.38937677  1
  O  O296  1  0.92192648  0.67476591  0.49973247  1
  C  C297  1  0.55437844  0.72624245  0.64164435  1
  C  C298  1  0.64657211  0.68470807  0.73883194  1
  C  C299  1  0.95361237  0.94767336  0.56906255  1
  C  C300  1  0.66526711  0.64046481  0.70136535  1
  H  H301  1  0.76704028  0.54484955  0.68177844  1
  H  H302  1  0.55407177  0.55809676  0.63644153  1
  H  H303  1  0.58608896  0.76664503  0.66415255  1
  H  H304  1  0.58103881  0.73105698  0.73025796  1
  C  C305  1  0.53359378  0.61027120  0.62666275  1
  C  C306  1  0.74671322  0.57774171  0.70945171  1
  H  H307  1  0.93803994  0.55427375  0.52701377  1
  O  O308  1  0.83524330  0.94568712  0.53739698  1
  C  C309  1  0.58591648  0.66092965  0.65721120  1
  C  C310  1  0.98171197  0.68842761  0.53890515  1
  O  O311  1  0.97928387  0.74319642  0.55472254  1
  O  O312  1  0.51102435  0.85430341  0.59504496  1
  O  O313  1  0.50609825  0.51200085  0.56678814  1
  Zn  Zn314  1  0.56358413  0.92721015  0.54436805  1
  C  C315  1  0.82600021  0.56067972  0.74965639  1
  O  O316  1  0.63647177  0.56180889  0.95788588  1
  C  C317  1  0.51357608  0.73928719  0.88751723  1
  C  C318  1  0.53230826  0.56310092  0.92433263  1
  H  H319  1  0.74348251  0.70141324  0.80858996  1
  C  C320  1  0.54739773  0.68288456  0.91167977  1
  O  O321  1  0.56560799  0.85450403  0.89392865  1
  C  C322  1  0.81727232  0.60751697  0.78657031  1
  H  H323  1  0.91233958  0.51604073  0.75214888  1
  H  H324  1  0.62875048  0.68446397  0.94265013  1
  C  C325  1  0.60094090  0.80045719  0.90803058  1
  C  C326  1  0.73196725  0.66689078  0.78042239  1
  C  C327  1  0.89149906  0.52649446  0.84948254  1
  C  C328  1  0.90058241  0.59013843  0.83230785  1
  O  O329  1  0.71316521  0.79111944  0.94001866  1
  C  C330  1  0.96318257  0.51562402  0.89224304  1
  O  O331  1  0.65490513  0.90754650  0.99810876  1
  Zn  Zn332  1  0.99423248  0.82257050  0.94539263  1
  H  H333  1  0.98951783  0.98967228  0.82777392  1
  C  C334  1  0.98349923  0.63900074  0.85853151  1
  H  H335  1  0.98603388  0.68812880  0.84740121  1
