# generated using pymatgen
data_ZnH3(C2O)4
_symmetry_space_group_name_H-M   'P 1'
_cell_length_a   3.58818106
_cell_length_b   16.92846836
_cell_length_c   24.38235123
_cell_angle_alpha   90.00000000
_cell_angle_beta   90.00000000
_cell_angle_gamma   90.00000000
_symmetry_Int_Tables_number   1
_chemical_formula_structural   ZnH3(C2O)4
_chemical_formula_sum   'Zn8 H24 C64 O32'
_cell_volume   1481.04276230
_cell_formula_units_Z   8
loop_
 _symmetry_equiv_pos_site_id
 _symmetry_equiv_pos_as_xyz
  1  'x, y, z'
loop_
 _atom_site_type_symbol
 _atom_site_label
 _atom_site_symmetry_multiplicity
 _atom_site_fract_x
 _atom_site_fract_y
 _atom_site_fract_z
 _atom_site_occupancy
  Zn  Zn0  1  0.06725573  0.40617801  0.19612021  1
  C  C1  1  0.23116928  0.17678714  0.05136215  1
  C  C2  1  0.34639226  0.23918614  0.08502655  1
  H  H3  1  0.36790619  0.23481465  0.12970074  1
  C  C4  1  0.12593463  0.09808608  0.07688991  1
  O  O5  1  0.13273860  0.09000361  0.13173649  1
  C  C6  1  0.46881418  0.30250690  0.05517129  1
  O  O7  1  0.03522435  0.04727591  0.04722975  1
  H  H8  1  0.37079954  0.35765369  0.48712962  1
  Zn  Zn9  1  0.34735130  0.02545756  0.66873031  1
  O  O10  1  0.30674036  0.42612339  0.56944406  1
  C  C11  1  0.35223510  0.36555866  0.59364885  1
  H  H12  1  0.36780092  0.25200761  0.74304650  1
  O  O13  1  0.33354012  0.35246245  0.64461263  1
  C  C14  1  0.49453038  0.30211530  0.50391199  1
  O  O15  1  0.37460693  0.40033853  0.74924021  1
  O  O16  1  0.30451489  0.11080221  0.73461691  1
  C  C17  1  0.37718228  0.31483301  0.82095947  1
  C  C18  1  0.33171949  0.39755871  0.80137734  1
  O  O19  1  0.37112046  0.03320975  0.80717789  1
  C  C20  1  0.39698615  0.24330297  0.90356034  1
  C  C21  1  0.33433079  0.10102103  0.78528210  1
  H  H22  1  0.35221568  0.37279903  0.90185371  1
  C  C23  1  0.41249328  0.17290699  0.87322048  1
  C  C24  1  0.36824857  0.24711652  0.96683048  1
  H  H25  1  0.45410411  0.12011988  0.89812752  1
  C  C26  1  0.37148237  0.17674881  0.81691111  1
  C  C27  1  0.36959748  0.24881133  0.78773193  1
  C  C28  1  0.37157667  0.31767812  0.87900323  1
  O  O29  1  0.31853868  0.45776796  0.83023415  1
  C  C30  1  0.22714769  0.18069734  0.99587106  1
  H  H31  1  0.12206995  0.12781254  0.97033575  1
  C  C32  1  0.49431104  0.31078220  0.99613362  1
  H  H33  1  0.32941197  0.88591455  0.02267633  1
  C  C34  1  0.11628676  0.75979099  0.09238655  1
  C  C35  1  0.08594433  0.76486836  0.03067119  1
  C  C36  1  0.08662750  0.68540377  0.11734626  1
  C  C37  1  0.09758879  0.67770404  0.17463821  1
  C  C38  1  0.11633099  0.81877767  0.18157163  1
  C  C39  1  0.21877437  0.83104547  0.00163024  1
  O  O40  1  0.11975917  0.95845421  0.19364185  1
  C  C41  1  0.10286488  0.59666675  0.19976204  1
  H  H42  1  0.06624408  0.62913370  0.09691422  1
  C  C43  1  0.11551226  0.89089082  0.21617284  1
  H  H44  1  0.13952816  0.88824158  0.10835890  1
  C  C45  1  0.08917004  0.74500722  0.20693153  1
  C  C46  1  0.12212387  0.82728264  0.12482458  1
  O  O47  1  0.06019308  0.53475552  0.17406507  1
  O  O48  1  0.12993761  0.88332921  0.26642865  1
  O  O49  1  0.13209053  0.59847411  0.25174845  1
  Zn  Zn50  1  0.06741522  0.97064559  0.32895328  1
  O  O51  1  0.19061807  0.57792557  0.43637760  1
  O  O52  1  0.47224567  0.96645997  0.44924166  1
  C  C53  1  0.11516767  0.63479796  0.41017036  1
  O  O54  1  0.13086881  0.63187853  0.35534693  1
  H  H55  1  0.09492422  0.74537938  0.25437197  1
  H  H56  1  0.11029105  0.64590401  0.50857522  1
  H  H57  1  0.07122782  0.76318934  0.87072295  1
  C  C58  1  0.39996383  0.90479210  0.92186536  1
  C  C59  1  0.23282826  0.82983231  0.94478043  1
  Zn  Zn60  1  0.23579041  0.58687324  0.81004596  1
  O  O61  1  0.39202876  0.90964617  0.86561465  1
  C  C62  1  0.08445017  0.76534251  0.91522587  1
  O  O63  1  0.57316687  0.12890260  0.23238433  1
  C  C64  1  0.57757801  0.36999922  0.09439721  1
  O  O65  1  0.58611233  0.35867436  0.14683694  1
  Zn  Zn66  1  0.63643343  0.03865796  0.17266393  1
  O  O67  1  0.66147663  0.43258228  0.07577785  1
  C  C68  1  0.76017982  0.17455451  0.49683837  1
  O  O69  1  0.55458194  0.04944783  0.30260139  1
  C  C70  1  0.55187527  0.11893705  0.28303160  1
  O  O71  1  0.63177118  0.47539979  0.32961599  1
  H  H72  1  0.89143255  0.12623831  0.47523720  1
  C  C73  1  0.56606212  0.33524540  0.32634518  1
  C  C74  1  0.57852260  0.17823813  0.37683317  1
  C  C75  1  0.56349254  0.18954098  0.31900732  1
  C  C76  1  0.57098513  0.26475624  0.29498258  1
  C  C77  1  0.57864548  0.24816041  0.40708148  1
  C  C78  1  0.60946307  0.24030522  0.46908334  1
  H  H79  1  0.53831469  0.26855789  0.25095202  1
  C  C80  1  0.58095841  0.32318094  0.38330371  1
  C  C81  1  0.57357430  0.41564341  0.30399833  1
  H  H82  1  0.56504280  0.12049150  0.39763081  1
  H  H83  1  0.61609113  0.37282007  0.41045629  1
  O  O84  1  0.59560883  0.41362893  0.25012659  1
  Zn  Zn85  1  0.89231512  0.40407908  0.69379424  1
  C  C86  1  0.60483651  0.22591497  0.58967373  1
  C  C87  1  0.74361304  0.16740623  0.55466992  1
  C  C88  1  0.88074261  0.09102160  0.57645735  1
  O  O89  1  0.87028030  0.08239926  0.62946546  1
  H  H90  1  0.56304228  0.21663941  0.63432799  1
  O  O91  1  0.97903464  0.03902619  0.54548827  1
  C  C92  1  0.50062728  0.29414570  0.56146587  1
  H  H93  1  0.58928506  0.36670812  0.97518697  1
  H  H94  1  0.79594412  0.65316862  0.01975514  1
  C  C95  1  0.73844932  0.84000236  0.44516431  1
  H  H96  1  0.88910063  0.79084658  0.36816559  1
  Zn  Zn97  1  0.62384624  0.60536672  0.30841523  1
  C  C98  1  0.88271498  0.78195309  0.41153662  1
  O  O99  1  0.58874865  0.91783764  0.36552579  1
  C  C100  1  0.58050766  0.91419457  0.42030884  1
  C  C101  1  0.99098852  0.71067682  0.43635686  1
  C  C102  1  0.98788270  0.70145318  0.49390842  1
  C  C103  1  0.87126267  0.66369073  0.67189002  1
  C  C104  1  0.85131040  0.74481886  0.58977325  1
  H  H105  1  0.90540380  0.61596186  0.58962445  1
  O  O106  1  0.81904443  0.52861199  0.67072521  1
  C  C107  1  0.86067471  0.76229096  0.52891581  1
  C  C108  1  0.86881925  0.80279324  0.68143621  1
  C  C109  1  0.87314721  0.72862265  0.70698393  1
  C  C110  1  0.88372903  0.67006909  0.61409201  1
  C  C111  1  0.84404124  0.58697498  0.70143184  1
  C  C112  1  0.87159870  0.87809324  0.71542366  1
  O  O113  1  0.85989121  0.94359169  0.69180342  1
  H  H114  1  0.84214749  0.86895441  0.60654900  1
  C  C115  1  0.86968127  0.80963400  0.62478367  1
  H  H116  1  0.60342627  0.87665288  0.52918614  1
  C  C117  1  0.73324068  0.83085591  0.50246926  1
  O  O118  1  0.62217761  0.57795428  0.92595702  1
  Zn  Zn119  1  0.86159480  0.96227939  0.83108721  1
  C  C120  1  0.73874157  0.63702330  0.90500393  1
  O  O121  1  0.86230650  0.87046240  0.76565511  1
  O  O122  1  0.70763028  0.64121407  0.85022775  1
  O  O123  1  0.50133525  0.95858316  0.94833658  1
  C  C124  1  0.92961345  0.70098039  0.94280610  1
  C  C125  1  0.94347714  0.69899317  0.99938357  1
  O  O126  1  0.76653109  0.58230705  0.75288818  1
  H  H127  1  0.86256211  0.71993722  0.75148171  1
