# generated using pymatgen
data_CuH6(C7O2)2
_symmetry_space_group_name_H-M   'P 1'
_cell_length_a   9.99827653
_cell_length_b   11.92936061
_cell_length_c   49.39095400
_cell_angle_alpha   90.00000000
_cell_angle_beta   90.00000000
_cell_angle_gamma   90.00000000
_symmetry_Int_Tables_number   1
_chemical_formula_structural   CuH6(C7O2)2
_chemical_formula_sum   'Cu18 H108 C252 O72'
_cell_volume   5891.00953890
_cell_formula_units_Z   18
loop_
 _symmetry_equiv_pos_site_id
 _symmetry_equiv_pos_as_xyz
  1  'x, y, z'
loop_
 _atom_site_type_symbol
 _atom_site_label
 _atom_site_symmetry_multiplicity
 _atom_site_fract_x
 _atom_site_fract_y
 _atom_site_fract_z
 _atom_site_occupancy
  H  H0  1  0.26990449  0.28326567  0.06046314  1
  O  O1  1  0.11783961  0.17720359  0.09555105  1
  C  C2  1  0.08349738  0.42186906  0.00473671  1
  H  H3  1  0.34091041  0.26977765  0.01814177  1
  O  O4  1  0.36208043  0.07851651  0.07460512  1
  C  C5  1  0.12065102  0.05622181  0.23837558  1
  C  C6  1  0.24549813  0.36985185  0.06744005  1
  C  C7  1  0.15313521  0.38041508  0.08822572  1
  C  C8  1  0.16751427  0.22485246  0.16819655  1
  C  C9  1  0.08391477  0.28007761  0.10134738  1
  C  C10  1  0.23507295  0.33349359  0.16591695  1
  C  C11  1  0.12846833  0.48121827  0.10086178  1
  C  C12  1  0.41290431  0.34080203  0.01692401  1
  C  C13  1  0.40511494  0.44063028  0.03280347  1
  H  H14  1  0.14122363  0.47649569  0.02042852  1
  Cu  Cu15  1  0.00284057  0.06879920  0.18658690  1
  H  H16  1  0.12653354  0.38686467  0.20145349  1
  C  C17  1  0.20171606  0.40814679  0.18614494  1
  H  H18  1  0.37244806  0.29918274  0.13381974  1
  H  H19  1  0.39107549  0.26983249  0.22734601  1
  O  O20  1  0.07717442  0.20431526  0.18561204  1
  O  O21  1  0.04904898  0.06437809  0.00661228  1
  Cu  Cu22  1  0.11838533  0.05977573  0.12320821  1
  O  O23  1  0.20310568  0.15316464  0.15068427  1
  H  H24  1  0.05751703  0.49125542  0.11774174  1
  C  C25  1  0.33591446  0.35892574  0.14716179  1
  C  C26  1  0.31793840  0.46353252  0.05720729  1
  C  C27  1  0.38710692  0.46919215  0.14537257  1
  O  O28  1  0.01827916  0.05444809  0.22402456  1
  H  H29  1  0.35600111  0.06237003  0.21057149  1
  C  C30  1  0.45210855  0.03516692  0.20267103  1
  C  C31  1  0.48831988  0.26479077  0.23887666  1
  C  C32  1  0.45102642  0.02888815  0.08499696  1
  C  C33  1  0.26616987  0.16103998  0.36468361  1
  C  C34  1  0.23266742  0.31617395  0.29294914  1
  C  C35  1  0.31762651  0.22353519  0.29090817  1
  C  C36  1  0.16084799  0.13593279  0.34661210  1
  C  C37  1  0.28692828  0.14115761  0.27080820  1
  C  C38  1  0.12940122  0.32996396  0.27432436  1
  C  C39  1  0.02962238  0.29014323  0.45215803  1
  H  H40  1  0.36937706  0.16341492  0.42310597  1
  C  C41  1  0.04399886  0.43586705  0.27824324  1
  H  H42  1  0.35956866  0.11811908  0.36538373  1
  C  C43  1  0.15305947  0.05316797  0.32538449  1
  C  C44  1  0.18624143  0.35893970  0.48555456  1
  C  C45  1  0.09462983  0.28761574  0.37298827  1
  H  H46  1  0.43462030  0.40530007  0.32558299  1
  C  C47  1  0.47405889  0.43404307  0.43780474  1
  C  C48  1  0.22189792  0.25059981  0.38216756  1
  C  C49  1  0.08967816  0.24828969  0.25535747  1
  H  H50  1  0.23933211  0.37292528  0.30972461  1
  C  C51  1  0.47183569  0.32245663  0.32755675  1
  C  C52  1  0.02698091  0.03668782  0.31435684  1
  C  C53  1  0.16981452  0.15182694  0.25541867  1
  H  H54  1  0.28884850  0.14718557  0.48244599  1
  C  C55  1  0.06982247  0.10787751  0.43125712  1
  C  C56  1  0.48506532  0.43459626  0.27094293  1
  C  C57  1  0.14632974  0.26799028  0.46792930  1
  C  C58  1  0.04506909  0.21272539  0.35318894  1
  C  C59  1  0.21671960  0.16757974  0.46767169  1
  C  C60  1  0.38459583  0.25682570  0.42167044  1
  H  H61  1  0.34758098  0.06771006  0.26944317  1
  C  C62  1  0.30841311  0.31286477  0.40237807  1
  C  C63  1  0.18141758  0.08891690  0.44771564  1
  C  C64  1  0.43020303  0.22995491  0.31102073  1
  C  C65  1  0.46420755  0.31716487  0.43974207  1
  H  H66  1  0.03682183  0.04992619  0.41454618  1
  H  H67  1  0.49139370  0.04741905  0.31171307  1
  C  C68  1  0.31174923  0.42904230  0.40155244  1
  H  H69  1  0.04244225  0.36823284  0.37956897  1
  C  C70  1  0.49454603  0.13194013  0.32124300  1
  H  H71  1  0.38538693  0.46488957  0.26522751  1
  O  O72  1  0.11652518  0.44823969  0.48918859  1
  H  H73  1  0.23933814  0.00361940  0.32018413  1
  H  H74  1  0.24355039  0.47371199  0.38685484  1
  C  C75  1  0.39143085  0.49018825  0.41937708  1
  O  O76  1  0.29371041  0.34783260  0.49859801  1
  Cu  Cu77  1  0.32063368  0.35766880  0.53809839  1
  O  O78  1  0.39424166  0.49149630  0.54739641  1
  H  H79  1  0.34335946  0.05752338  0.57809111  1
  O  O80  1  0.20420343  0.34221818  0.60380331  1
  C  C81  1  0.16228077  0.33975112  0.58136010  1
  O  O82  1  0.21281196  0.28136925  0.56214295  1
  H  H83  1  0.04733212  0.36376051  0.72355156  1
  H  H84  1  0.20437576  0.06829794  0.63176340  1
  H  H85  1  0.01130493  0.37113910  0.53002626  1
  H  H86  1  0.10714241  0.04980009  0.74049968  1
  H  H87  1  0.14271337  0.04368049  0.68707448  1
  H  H88  1  0.05991396  0.49305131  0.61192650  1
  C  C89  1  0.05289482  0.42449785  0.57289163  1
  C  C90  1  0.01100604  0.49748864  0.59189242  1
  H  H91  1  0.00951509  0.03618999  0.57461424  1
  Cu  Cu92  1  0.37061714  0.20459675  0.79576228  1
  C  C93  1  0.13907412  0.10470977  0.79451858  1
  C  C94  1  0.44325218  0.42721582  0.91130876  1
  C  C95  1  0.44071134  0.43688246  0.86254984  1
  C  C96  1  0.30230749  0.44588012  0.91058244  1
  O  O97  1  0.09773058  0.10119652  0.96273645  1
  C  C98  1  0.30073244  0.44291854  0.86084922  1
  C  C99  1  0.11158925  0.42457758  0.97679235  1
  C  C100  1  0.21439331  0.47992498  0.96134372  1
  H  H101  1  0.13211032  0.16797418  0.97282231  1
  O  O102  1  0.31858524  0.42179285  0.81287045  1
  O  O103  1  0.21928837  0.13591053  0.81385028  1
  C  C104  1  0.08691159  0.37649447  0.92988244  1
  C  C105  1  0.02657885  0.36151008  0.95549977  1
  C  C106  1  0.05000929  0.02973916  0.98411948  1
  H  H107  1  0.05429117  0.33040798  0.91090088  1
  C  C108  1  0.24762033  0.44639149  0.83372594  1
  C  C109  1  0.20496340  0.43923787  0.93378704  1
  H  H110  1  0.49770299  0.44089976  0.84349024  1
  O  O111  1  0.47341607  0.07886725  0.80335832  1
  O  O112  1  0.04584981  0.15673485  0.78677586  1
  C  C113  1  0.23776649  0.45582710  0.88558864  1
  H  H114  1  0.12985513  0.46453673  0.88752386  1
  C  C115  1  0.19186691  0.00106240  0.77822730  1
  H  H116  1  0.43738816  0.49685679  0.96639539  1
  O  O117  1  0.12809515  0.48050679  0.83140391  1
  Cu  Cu118  1  0.27931931  0.49932211  0.78075196  1
  O  O119  1  0.04318264  0.95969788  0.09964948  1
  O  O120  1  0.32362378  0.84682710  0.15124769  1
  C  C121  1  0.18525884  0.68195223  0.10374987  1
  O  O122  1  0.23883384  0.77140921  0.09651002  1
  C  C123  1  0.20371129  0.57232170  0.09101775  1
  O  O124  1  0.29133297  0.69199714  0.20594412  1
  C  C125  1  0.34944049  0.54610458  0.16516855  1
  H  H126  1  0.34944467  0.64633025  0.06529771  1
  Cu  Cu127  1  0.26872481  0.89459425  0.11776401  1
  H  H128  1  0.16251083  0.80593433  0.05520477  1
  Cu  Cu129  1  0.25108523  0.84664289  0.22302199  1
  O  O130  1  0.10638305  0.67887380  0.12498201  1
  C  C131  1  0.29710425  0.56803111  0.07018803  1
  H  H132  1  0.44468546  0.69349693  0.12442917  1
  O  O133  1  0.22348950  0.91153953  0.18783825  1
  C  C134  1  0.21243914  0.79545991  0.03550293  1
  C  C135  1  0.32474353  0.90098748  0.17355470  1
  O  O136  1  0.19433686  0.97234198  0.24133897  1
  C  C137  1  0.23768156  0.60091220  0.20750555  1
  H  H138  1  0.38652602  0.63492948  0.16290279  1
  O  O139  1  0.16082476  0.57065916  0.22676047  1
  C  C140  1  0.27314597  0.78501087  0.01469889  1
  C  C141  1  0.45301132  0.95176003  0.18328728  1
  O  O142  1  0.42361085  0.94741622  0.10233773  1
  C  C143  1  0.25977581  0.51559606  0.18565014  1
  C  C144  1  0.49927804  0.62200369  0.11662398  1
  C  C145  1  0.48630470  0.50629275  0.12378968  1
  H  H146  1  0.49379539  0.71557583  0.23180563  1
  O  O147  1  0.33386400  0.94639825  0.46057944  1
  O  O148  1  0.33441494  0.66891549  0.40248573  1
  O  O149  1  0.36752009  0.87948275  0.29471485  1
  O  O150  1  0.29858389  0.78409246  0.25825614  1
  H  H151  1  0.47531532  0.62335956  0.31358862  1
  C  C152  1  0.38784215  0.83312759  0.27371177  1
  O  O153  1  0.46405794  0.66268847  0.43890567  1
  Cu  Cu154  1  0.04740596  0.54657441  0.46443252  1
  C  C155  1  0.40295060  0.61422668  0.41976390  1
  O  O156  1  0.49465188  0.89882500  0.38822041  1
  C  C157  1  0.08685321  0.74803979  0.49720463  1
  Cu  Cu158  1  0.33345005  0.83499386  0.40087642  1
  O  O159  1  0.12482471  0.67140691  0.47908222  1
  H  H160  1  0.04248219  0.89506853  0.28283936  1
  Cu  Cu161  1  0.40583387  0.80435813  0.45155993  1
  O  O162  1  0.22448770  0.93158110  0.42160440  1
  O  O163  1  0.02947706  0.82811862  0.48998882  1
  O  O164  1  0.01498146  0.50875823  0.40462250  1
  C  C165  1  0.24689950  0.98295081  0.44409041  1
  O  O166  1  0.05732840  0.50726471  0.29539645  1
  C  C167  1  0.26699633  0.99232877  0.63453337  1
  C  C168  1  0.37673902  0.98284466  0.58860521  1
  C  C169  1  0.20820305  0.64374745  0.53245342  1
  C  C170  1  0.43457209  0.83634685  0.62073024  1
  H  H171  1  0.33472318  0.71947919  0.70153977  1
  C  C172  1  0.35235295  0.82826445  0.66589735  1
  C  C173  1  0.25064061  0.64362998  0.55963483  1
  C  C174  1  0.12553607  0.73370424  0.52657380  1
  C  C175  1  0.34879069  0.94342694  0.61461470  1
  C  C176  1  0.31604458  0.80239510  0.69240572  1
  C  C177  1  0.00801683  0.99055534  0.59396722  1
  C  C178  1  0.20594350  0.96630048  0.68453642  1
  C  C179  1  0.23793288  0.88780457  0.70574053  1
  H  H180  1  0.30654708  0.73012455  0.74283676  1
  C  C181  1  0.42678570  0.77557375  0.64543208  1
  C  C182  1  0.22044000  0.89760317  0.73627805  1
  C  C183  1  0.27359631  0.93759583  0.66032305  1
  C  C184  1  0.11710073  0.80759174  0.57273478  1
  C  C185  1  0.34521643  0.55503101  0.56787090  1
  C  C186  1  0.20738267  0.72015345  0.57929314  1
  C  C187  1  0.48484607  0.91218397  0.57964192  1
  C  C188  1  0.08125311  0.81507006  0.54517901  1
  O  O189  1  0.37749370  0.53944512  0.59059803  1
  H  H190  1  0.24278242  0.70732308  0.59980982  1
  H  H191  1  0.23587354  0.58123226  0.51703828  1
  H  H192  1  0.48083999  0.69546649  0.64875696  1
  H  H193  1  0.48476692  0.82359428  0.52531040  1
  C  C194  1  0.03226984  0.83539533  0.62264090  1
  H  H195  1  0.05266212  0.75106455  0.63100976  1
  C  C196  1  0.05130607  0.87745653  0.59591495  1
  H  H197  1  0.01917951  0.88432402  0.53885878  1
  C  C198  1  0.34010604  0.53568850  0.97134278  1
  C  C199  1  0.29650878  0.82299867  0.77854193  1
  O  O200  1  0.37266671  0.63107894  0.77654534  1
  C  C201  1  0.26737747  0.92370738  0.79202616  1
  Cu  Cu202  1  0.09554952  0.60384471  0.81162200  1
  C  C203  1  0.37225847  0.72360206  0.79112779  1
  C  C204  1  0.00312924  0.91302671  0.97706065  1
  C  C205  1  0.36570614  0.83730930  0.96560367  1
  C  C206  1  0.32127904  0.75395784  0.98700742  1
  H  H207  1  0.06550769  0.92318975  0.93566681  1
  O  O208  1  0.41924514  0.72697845  0.81278226  1
  O  O209  1  0.14360813  0.52171012  0.75194719  1
  O  O210  1  0.30296420  0.74706885  0.88347107  1
  C  C211  1  0.01921977  0.86975405  0.95065263  1
  C  C212  1  0.33037477  0.64364227  0.97956005  1
  C  C213  1  0.34820787  0.80285946  0.93861510  1
  H  H214  1  0.29445114  0.93446555  0.81424542  1
  H  H215  1  0.28590502  0.72922255  0.93524819  1
  O  O216  1  0.05886398  0.75415346  0.81101224  1
  Cu  Cu217  1  0.14096082  0.79308453  0.86712053  1
  C  C218  1  0.41417021  0.85459760  0.91759189  1
  C  C219  1  0.43192676  0.94072334  0.97075130  1
  C  C220  1  0.03197943  0.51717466  0.76265652  1
  C  C221  1  0.39865747  0.81423488  0.88804615  1
  H  H222  1  0.44688415  0.98149346  0.99122852  1
  O  O223  1  0.04784757  0.79786267  0.90061820  1
  C  C224  1  0.27138315  0.80629179  0.75124521  1
  C  C225  1  0.00498675  0.72854544  0.91861910  1
  O  O226  1  0.47759779  0.84673838  0.87186947  1
  O  O227  1  0.00053060  0.85183132  0.84640295  1
  C  C228  1  0.16813213  0.99015432  0.75136806  1
  C  C229  1  0.49546792  0.98900033  0.94810778  1
  C  C230  1  0.82631144  0.23686602  0.03467228  1
  C  C231  1  0.76933095  0.15215521  0.05581624  1
  C  C232  1  0.72974094  0.47753141  0.06613365  1
  H  H233  1  0.76817571  0.38992451  0.06373996  1
  C  C234  1  0.86723732  0.08257125  0.06769813  1
  C  C235  1  0.59370827  0.45888634  0.00532139  1
  H  H236  1  0.56616476  0.34272252  0.10801777  1
  C  C237  1  0.93277637  0.31533632  0.03905317  1
  C  C238  1  0.58116696  0.17601786  0.23225613  1
  C  C239  1  0.57255925  0.08166960  0.21129971  1
  C  C240  1  0.56730410  0.43652774  0.10680090  1
  H  H241  1  0.55613180  0.18875367  0.05203960  1
  C  C242  1  0.73274938  0.48447606  0.00136282  1
  C  C243  1  0.63359481  0.13473196  0.06149644  1
  C  C244  1  0.60042959  0.04797089  0.07881839  1
  H  H245  1  0.78907060  0.05920315  0.21117407  1
  C  C246  1  0.69065873  0.03249447  0.20259527  1
  C  C247  1  0.79885415  0.21236719  0.00698557  1
  C  C248  1  0.97728082  0.34854915  0.01289043  1
  O  O249  1  0.99599741  0.30366979  0.11647164  1
  H  H250  1  0.96983920  0.34960771  0.05865244  1
  H  H251  1  0.97072837  0.09544997  0.05967006  1
  C  C252  1  0.69562157  0.19078628  0.24868974  1
  H  H253  1  0.78085608  0.12928877  0.24928556  1
  H  H254  1  0.99895297  0.25644473  0.24291031  1
  C  C255  1  0.76878789  0.33266653  0.28276249  1
  O  O256  1  0.96763073  0.45175961  0.25706191  1
  H  H257  1  0.59235661  0.42739890  0.37504174  1
  C  C258  1  0.67834218  0.28576039  0.26481471  1
  C  C259  1  0.67451081  0.09892208  0.36101032  1
  H  H260  1  0.83151107  0.26268743  0.34304886  1
  C  C261  1  0.78111977  0.31705388  0.40966178  1
  Cu  Cu262  1  0.61534985  0.05427023  0.43518472  1
  C  C263  1  0.70697002  0.42228471  0.29732305  1
  H  H264  1  0.53976133  0.47870384  0.45142335  1
  C  C265  1  0.75738968  0.47005877  0.32224222  1
  C  C266  1  0.99248343  0.20810982  0.43325175  1
  O  O267  1  0.56472983  0.15572262  0.46062448  1
  C  C268  1  0.53947148  0.33937022  0.25881464  1
  H  H269  1  0.86681650  0.29870987  0.28846512  1
  H  H270  1  0.78209062  0.40179521  0.41866337  1
  C  C271  1  0.55195106  0.26145647  0.45936113  1
  C  C272  1  0.57255714  0.47765238  0.29190243  1
  C  C273  1  0.60809321  0.33863929  0.37042412  1
  C  C274  1  0.69941330  0.28485855  0.38786777  1
  C  C275  1  0.54913594  0.27970417  0.34923487  1
  C  C276  1  0.83713512  0.13007362  0.39990217  1
  C  C277  1  0.80017652  0.07547821  0.30507633  1
  H  H278  1  0.88540872  0.04939725  0.40080980  1
  C  C279  1  0.73147257  0.16048421  0.38193639  1
  H  H280  1  0.69913283  0.11228448  0.30427732  1
  C  C281  1  0.91731054  0.20365278  0.33998269  1
  H  H282  1  0.85487521  0.44588735  0.33013235  1
  C  C283  1  0.90732607  0.11602698  0.32064664  1
  C  C284  1  0.86703004  0.22406559  0.41686119  1
  H  H285  1  0.79152178  0.06624919  0.49876685  1
  O  O286  1  0.60856082  0.32507346  0.47601263  1
  C  C287  1  0.57588418  0.15511116  0.34416213  1
  Cu  Cu288  1  0.75515282  0.28564362  0.49792156  1
  H  H289  1  0.70571216  0.01227573  0.35752474  1
  O  O290  1  0.83352662  0.42954551  0.49826383  1
  H  H291  1  0.97487185  0.37085484  0.45473231  1
  H  H292  1  0.88662624  0.32135778  0.66980404  1
  O  O293  1  0.82986694  0.21415302  0.56971435  1
  C  C294  1  0.93121436  0.04018997  0.67852716  1
  H  H295  1  0.66838316  0.20844885  0.73955149  1
  C  C296  1  0.65865545  0.02663343  0.56178279  1
  C  C297  1  0.72927725  0.03292313  0.51515222  1
  C  C298  1  0.73383049  0.07470390  0.54169261  1
  C  C299  1  0.96399537  0.02933926  0.61953165  1
  H  H300  1  0.66225321  0.06262961  0.58248899  1
  C  C301  1  0.90693290  0.23588936  0.67699270  1
  C  C302  1  0.99102200  0.42714499  0.54713752  1
  O  O303  1  0.86668563  0.23745318  0.52647811  1
  C  C304  1  0.89382446  0.19912339  0.70382238  1
  C  C305  1  0.82199107  0.17938824  0.54722233  1
  H  H306  1  0.94190668  0.49719773  0.64418384  1
  C  C307  1  0.93134565  0.14057836  0.65946703  1
  C  C308  1  0.90936899  0.07891204  0.70502541  1
  C  C309  1  0.86574913  0.27401368  0.72788431  1
  C  C310  1  0.93659001  0.13853840  0.63109289  1
  C  C311  1  0.95632008  0.35953417  0.73417192  1
  H  H312  1  0.92553683  0.21261472  0.61848962  1
  C  C313  1  0.74571287  0.26609806  0.74394108  1
  H  H314  1  0.90288605  0.02898602  0.72334496  1
  H  H315  1  0.50072472  0.41568323  0.92995218  1
  O  O316  1  0.64812279  0.13523473  0.93942877  1
  C  C317  1  0.57714239  0.06375113  0.81652077  1
  H  H318  1  0.63878039  0.29117931  0.96886180  1
  O  O319  1  0.71294084  0.38147749  0.86273648  1
  C  C320  1  0.65693351  0.40561210  0.88504471  1
  H  H321  1  0.72772175  0.15365016  0.99795305  1
  C  C322  1  0.61145859  0.31098727  0.78424953  1
  C  C323  1  0.72822105  0.33218972  0.76659574  1
  Cu  Cu324  1  0.67399686  0.25832202  0.84050254  1
  C  C325  1  0.82078971  0.41324487  0.77326045  1
  H  H326  1  0.87501472  0.23095045  0.94934653  1
  C  C327  1  0.88963502  0.28627946  0.99225492  1
  C  C328  1  0.92535087  0.28517854  0.96446109  1
  H  H329  1  0.81055433  0.46713912  0.79184643  1
  O  O330  1  0.61600707  0.11672471  0.83709973  1
  H  H331  1  0.78543946  0.44520059  0.98450376  1
  O  O332  1  0.62573031  0.33691871  0.80874790  1
  C  C333  1  0.55259602  0.26174484  0.98100656  1
  O  O334  1  0.72667336  0.40484712  0.90618449  1
  O  O335  1  0.50673631  0.27366950  0.77390180  1
  C  C336  1  0.51359413  0.42670381  0.88695564  1
  O  O337  1  0.50519624  0.16551576  0.97765088  1
  C  C338  1  0.56397440  0.09949026  0.95345709  1
  C  C339  1  0.51914155  0.35044813  0.99880213  1
  C  C340  1  0.93315126  0.42756000  0.75673255  1
  C  C341  1  0.74615838  0.74692646  0.03263308  1
  C  C342  1  0.80836336  0.89960600  0.17211810  1
  C  C343  1  0.69405007  0.68242147  0.05449115  1
  C  C344  1  0.92240222  0.92568055  0.09924176  1
  C  C345  1  0.80525720  0.56290947  0.01967426  1
  C  C346  1  0.61515458  0.71493967  0.07742527  1
  H  H347  1  0.93750880  0.88335933  0.01919207  1
  H  H348  1  0.73307458  0.83724440  0.03247501  1
  H  H349  1  0.50855610  0.59995914  0.03232991  1
  Cu  Cu350  1  0.97298740  0.56794406  0.22830867  1
  C  C351  1  0.81649043  0.69232624  0.01381190  1
  C  C352  1  0.58357491  0.62112487  0.09361012  1
  O  O353  1  0.80813305  0.81661930  0.15628210  1
  H  H354  1  0.66028146  0.92201814  0.10702674  1
  O  O355  1  0.89385983  0.82948717  0.10653747  1
  O  O356  1  0.67268835  0.62741759  0.20566232  1
  C  C357  1  0.69154684  0.98253962  0.09211746  1
  H  H358  1  0.55840050  0.84335973  0.15486354  1
  H  H359  1  0.58843066  0.80125772  0.08292168  1
  C  C360  1  0.56333403  0.76714573  0.24337441  1
  O  O361  1  0.87909145  0.68256512  0.21464793  1
  C  C362  1  0.74119643  0.56795684  0.04905382  1
  C  C363  1  0.68429940  0.94822354  0.18221773  1
  O  O364  1  0.91705797  0.93193752  0.18301125  1
  C  C365  1  0.74886077  0.68230890  0.21829550  1
  C  C366  1  0.56540043  0.90742839  0.17112545  1
  C  C367  1  0.50250057  0.51435347  0.02237926  1
  Cu  Cu368  1  0.95670822  0.74572549  0.13716220  1
  H  H369  1  0.90882138  0.53378860  0.01920593  1
  C  C370  1  0.70336740  0.76490175  0.24008211  1
  C  C371  1  0.63845514  0.50333850  0.08773719  1
  C  C372  1  0.82664736  0.99855590  0.08475353  1
  H  H373  1  0.90236614  0.83531096  0.24446896  1
  C  C374  1  0.84256505  0.98534576  0.28873689  1
  C  C375  1  0.75360083  0.90297054  0.27356428  1
  C  C376  1  0.60931281  0.87549389  0.39678013  1
  C  C377  1  0.56446177  0.56749498  0.31152235  1
  O  O378  1  0.54722223  0.82839852  0.47556398  1
  C  C379  1  0.61814015  0.90253218  0.28073707  1
  C  C380  1  0.67627230  0.56422410  0.32958365  1
  H  H381  1  0.55453004  0.75624052  0.35285322  1
  C  C382  1  0.95489084  0.58697801  0.41302636  1
  C  C383  1  0.98228351  0.96380187  0.29287670  1
  C  C384  1  0.70913390  0.62135598  0.35574335  1
  C  C385  1  0.64212069  0.71866383  0.36367846  1
  C  C386  1  0.77400255  0.72498409  0.40468862  1
  O  O387  1  0.66926677  0.94302172  0.41108780  1
  O  O388  1  0.68738795  0.96562311  0.46430929  1
  H  H389  1  0.57456782  0.94688043  0.29867996  1
  H  H390  1  0.79042411  0.75970999  0.42506665  1
  C  C391  1  0.81589567  0.57862924  0.37074237  1
  C  C392  1  0.84741296  0.63458462  0.39428493  1
  C  C393  1  0.67832370  0.77110003  0.38790544  1
  C  C394  1  0.62527584  0.90686007  0.48162650  1
  H  H395  1  0.86935112  0.50395638  0.36442075  1
  C  C396  1  0.53343476  0.83514900  0.26535587  1
  C  C397  1  0.79502363  0.83705575  0.25168225  1
  O  O398  1  0.98417813  0.63904822  0.43553394  1
  C  C399  1  0.57329735  0.93499990  0.55547043  1
  C  C400  1  0.70247813  0.79526441  0.69250965  1
  C  C401  1  0.71092343  0.81892603  0.73836598  1
  C  C402  1  0.75902827  0.70827090  0.73368851  1
  C  C403  1  0.89041038  0.57413717  0.63961634  1
  H  H404  1  0.76293627  0.64028448  0.55754485  1
  C  C405  1  0.69575555  0.81643695  0.66432477  1
  C  C406  1  0.97899232  0.92589929  0.63873876  1
  C  C407  1  0.75976467  0.73230163  0.64855181  1
  H  H408  1  0.61786168  0.94892691  0.70994339  1
  C  C409  1  0.78658187  0.72604669  0.62001314  1
  C  C410  1  0.86439108  0.62794523  0.61411524  1
  H  H411  1  0.62954611  0.88697599  0.65719927  1
  H  H412  1  0.95967652  0.84898737  0.67688012  1
  C  C413  1  0.85048972  0.58591303  0.56153792  1
  H  H414  1  0.76085323  0.79227365  0.60575051  1
  H  H415  1  0.87082871  0.52602118  0.69873541  1
  C  C416  1  0.66388936  0.86953172  0.71320798  1
  C  C417  1  0.77284993  0.69076778  0.70472806  1
  O  O418  1  0.72542424  0.57967378  0.51172166  1
  C  C419  1  0.83400629  0.63154290  0.66124107  1
  C  C420  1  0.83047238  0.60323985  0.68893015  1
  C  C421  1  0.80914310  0.51120739  0.51561747  1
  C  C422  1  0.63979981  0.94412755  0.50959779  1
  C  C423  1  0.91055905  0.58280535  0.58749556  1
  C  C424  1  0.95263467  0.93065434  0.66672704  1
  H  H425  1  0.58356059  0.74784112  0.59387597  1
  C  C426  1  0.56341347  0.89217897  0.52974198  1
  C  C427  1  0.50688393  0.81554449  0.59667163  1
  C  C428  1  0.89078155  0.50702185  0.54181324  1
  H  H429  1  0.79054316  0.65074074  0.74967145  1
  C  C430  1  0.64542054  0.94045837  0.77905805  1
  C  C431  1  0.91856251  0.69218270  0.96691496  1
  C  C432  1  0.77631584  0.94466554  0.82001323  1
  C  C433  1  0.94674434  0.85084337  0.99862644  1
  C  C434  1  0.73402575  0.86630783  0.76651473  1
  C  C435  1  0.85058524  0.83795169  0.78053416  1
  H  H436  1  0.89969592  0.60226342  0.96440890  1
  H  H437  1  0.79551287  0.96956623  0.84096353  1
  H  H438  1  0.56301313  0.97505612  0.90529834  1
  C  C439  1  0.86822417  0.87142458  0.80736909  1
  H  H440  1  0.91702914  0.77314463  0.77239031  1
  C  C441  1  0.67172436  0.98437166  0.80470149  1
  Cu  Cu442  1  0.85054841  0.51987851  0.90869754  1
  C  C443  1  0.98074458  0.82071186  0.82197413  1
  O  O444  1  0.99279630  0.58739039  0.78033418  1
  C  C445  1  0.90252272  0.74297960  0.99221952  1
  C  C446  1  0.97309390  0.76063258  0.94681587  1
  O  O447  1  0.98695924  0.62622038  0.91266159  1
  C  C448  1  0.50225390  0.94274818  0.92202346  1
  H  H449  1  0.55246561  0.97008971  0.76869052  1
