# generated using pymatgen
data_NaH29C48(NO2)4
_symmetry_space_group_name_H-M   'P 1'
_cell_length_a   17.36630799
_cell_length_b   15.45780066
_cell_length_c   15.70933301
_cell_angle_alpha   90.00000000
_cell_angle_beta   90.00000000
_cell_angle_gamma   90.00000000
_symmetry_Int_Tables_number   1
_chemical_formula_structural   NaH29C48(NO2)4
_chemical_formula_sum   'Na4 H116 C192 N16 O32'
_cell_volume   4217.09075578
_cell_formula_units_Z   4
loop_
 _symmetry_equiv_pos_site_id
 _symmetry_equiv_pos_as_xyz
  1  'x, y, z'
loop_
 _atom_site_type_symbol
 _atom_site_label
 _atom_site_symmetry_multiplicity
 _atom_site_fract_x
 _atom_site_fract_y
 _atom_site_fract_z
 _atom_site_occupancy
  H  H0  1  0.09683597  0.18213825  0.08851964  1
  O  O1  1  0.48816271  0.02507412  0.14696580  1
  C  C2  1  0.09015648  0.30347294  0.01359329  1
  N  N3  1  0.05252030  0.49416172  0.22027582  1
  H  H4  1  0.00787312  0.10020140  0.17887866  1
  C  C5  1  0.21270899  0.42539118  0.20703648  1
  C  C6  1  0.46443911  0.46552950  0.17354055  1
  C  C7  1  0.24952066  0.16413388  0.09638117  1
  C  C8  1  0.28983038  0.11444240  0.03816405  1
  H  H9  1  0.32454096  0.49531859  0.10504109  1
  H  H10  1  0.45345523  0.03158234  0.19336948  1
  H  H11  1  0.23715802  0.23221267  0.08838270  1
  C  C12  1  0.21809849  0.13133175  0.17292907  1
  H  H13  1  0.11591118  0.42957940  0.07293073  1
  C  C14  1  0.30009948  0.02846000  0.06477208  1
  H  H15  1  0.03079904  0.28747146  0.03730559  1
  H  H16  1  0.40845037  0.37135264  0.09510956  1
  C  C17  1  0.01291639  0.08194022  0.11137571  1
  C  C18  1  0.46540929  0.39875306  0.11590928  1
  H  H19  1  0.41783268  0.14018120  0.23380203  1
  H  H20  1  0.05150445  0.42606362  0.21944904  1
  N  N21  1  0.16445695  0.35990872  0.21576591  1
  C  C22  1  0.06107398  0.12882539  0.06039677  1
  C  C23  1  0.13435228  0.37401819  0.03396828  1
  C  C24  1  0.23705296  0.04385034  0.19927775  1
  H  H25  1  0.41161150  0.49763823  0.19855185  1
  H  H26  1  0.34639212  0.43428308  0.21431079  1
  C  C27  1  0.17334172  0.19843392  0.21881975  1
  C  C28  1  0.28682334  0.30692273  0.22087358  1
  H  H29  1  0.33575945  0.26314848  0.22192013  1
  C  C30  1  0.29235161  0.39612384  0.21895809  1
  C  C31  1  0.20470710  0.28741394  0.22035126  1
  C  C32  1  0.46987449  0.23965617  0.31458225  1
  C  C33  1  0.48333424  0.34050220  0.47005699  1
  H  H34  1  0.41746043  0.21105201  0.44727992  1
  C  C35  1  0.20123152  0.14270608  0.47605318  1
  H  H36  1  0.45117146  0.42513309  0.34254325  1
  H  H37  1  0.11542509  0.24726602  0.41314717  1
  H  H38  1  0.41569302  0.27507990  0.32510705  1
  H  H39  1  0.08883331  0.44414094  0.36161195  1
  N  N40  1  0.05039735  0.23178025  0.29160952  1
  H  H41  1  0.47057888  0.10086986  0.41602202  1
  H  H42  1  0.31417242  0.46961949  0.40936232  1
  H  H43  1  0.23776547  0.23963342  0.38221815  1
  C  C44  1  0.30646672  0.12160381  0.37657825  1
  C  C45  1  0.10735690  0.17086285  0.26597352  1
  C  C46  1  0.08161619  0.08688863  0.29325159  1
  C  C47  1  0.24579695  0.17539272  0.40769439  1
  H  H48  1  0.34135255  0.13728256  0.31981785  1
  C  C49  1  0.42343095  0.48880189  0.34134635  1
  C  C50  1  0.01488391  0.10130025  0.34006423  1
  C  C51  1  0.49097596  0.03758179  0.39273221  1
  O  O52  1  0.10197689  0.26871202  0.46667653  1
  C  C53  1  0.32160185  0.04259939  0.42372224  1
  C  C54  1  0.11953170  0.49503638  0.40149810  1
  H  H55  1  0.10859183  0.02286890  0.28669098  1
  H  H56  1  0.06151725  0.29596584  0.28864353  1
  C  C57  1  0.42345816  0.27592573  0.48214165  1
  H  H58  1  0.21766026  0.01691223  0.26341862  1
  C  C59  1  0.47443219  0.16223215  0.26847485  1
  C  C60  1  0.21637822  0.06966752  0.52869666  1
  H  H61  1  0.17706805  0.04331655  0.57704133  1
  C  C62  1  0.26583950  0.44315595  0.73246826  1
  C  C63  1  0.22168711  0.14252219  0.71171567  1
  C  C64  1  0.27434158  0.42715762  0.64247738  1
  C  C65  1  0.22006715  0.37774598  0.59129420  1
  H  H66  1  0.10864443  0.32322306  0.59130172  1
  C  C67  1  0.38872609  0.39534307  0.56373247  1
  O  O68  1  0.10397551  0.16861630  0.57848661  1
  C  C69  1  0.13963903  0.36906488  0.71756704  1
  H  H70  1  0.23205805  0.15581266  0.64362687  1
  C  C71  1  0.35439334  0.45339086  0.62113751  1
  H  H72  1  0.31803881  0.26842663  0.56186413  1
  C  C73  1  0.15280541  0.35357856  0.63070635  1
  C  C74  1  0.37073037  0.30706373  0.54079419  1
  N  N75  1  0.46462894  0.41177099  0.52662620  1
  H  H76  1  0.44965791  0.07115551  0.61971764  1
  H  H77  1  0.22850590  0.37041748  0.52287971  1
  C  C78  1  0.01462228  0.47645741  0.51271523  1
  C  C79  1  0.34826361  0.07362283  0.74309329  1
  C  C80  1  0.42854727  0.00498274  0.63328545  1
  C  C81  1  0.13538287  0.18841294  0.51562597  1
  O  O82  1  0.00392350  0.33347756  0.71525289  1
  H  H83  1  0.10682317  0.20265721  0.73420567  1
  C  C84  1  0.28203408  0.02461041  0.50311183  1
  C  C85  1  0.13167219  0.24952380  0.95177708  1
  N  N86  1  0.35794408  0.37683188  0.89594179  1
  O  O87  1  0.37488308  0.03584424  0.92812371  1
  C  C88  1  0.03330593  0.03193759  0.94173994  1
  C  C89  1  0.42289297  0.40112865  0.85596618  1
  H  H90  1  0.09012529  0.48218233  0.96180494  1
  C  C91  1  0.26752333  0.09289419  0.77173724  1
  O  O92  1  0.05217809  0.38620148  0.83773763  1
  H  H93  1  0.24285856  0.28656858  0.89303890  1
  N  N94  1  0.19697454  0.29903698  0.92971017  1
  N  N95  1  0.23135775  0.08966610  0.84730343  1
  C  C96  1  0.16995343  0.13723297  0.84465163  1
  H  H97  1  0.10122750  0.36390386  0.86220474  1
  C  C98  1  0.41044752  0.12904535  0.76482330  1
  C  C99  1  0.19861662  0.41141441  0.76799317  1
  C  C100  1  0.12594089  0.16261028  0.92373784  1
  H  H101  1  0.04657941  0.01144779  0.87429307  1
  C  C102  1  0.24841191  0.44855835  0.96352226  1
  C  C103  1  0.07332188  0.10837781  0.97224219  1
  C  C104  1  0.47639409  0.25749905  0.79547309  1
  H  H105  1  0.36344968  0.26329751  0.79066134  1
  C  C106  1  0.32722727  0.44997956  0.92582583  1
  N  N107  1  0.40390906  0.21517224  0.79839297  1
  C  C108  1  0.43291690  0.49391075  0.84994464  1
  C  C109  1  0.48183765  0.34736788  0.81464231  1
  H  H110  1  0.32692595  0.04029348  0.90128643  1
  H  H111  1  0.18903169  0.42085134  0.83664408  1
  C  C112  1  0.20170494  0.37404410  0.98102545  1
  C  C113  1  0.15980617  0.17156881  0.75953828  1
  H  H114  1  0.31899111  0.46133188  0.76473875  1
  C  C115  1  0.49238163  0.11238366  0.75846174  1
  Na  Na116  1  0.49923725  0.10634983  0.97725919  1
  O  O117  1  0.46644820  0.26660440  0.97737295  1
  H  H118  1  0.31208884  0.14176062  0.98112539  1
  H  H119  1  0.44946285  0.32587071  0.97031907  1
  C  C120  1  0.06120765  0.35691746  0.75348669  1
  C  C121  1  0.41914875  0.77370380  0.15061332  1
  H  H122  1  0.29660273  0.92408087  0.16273434  1
  C  C123  1  0.37652841  0.62244865  0.12087992  1
  C  C124  1  0.29245882  0.73024259  0.19636544  1
  C  C125  1  0.19288873  0.51407592  0.18126847  1
  C  C126  1  0.24880890  0.58463165  0.17370773  1
  C  C127  1  0.08086277  0.61314709  0.13322043  1
  C  C128  1  0.31800088  0.56223651  0.13278828  1
  H  H129  1  0.11800098  0.65837659  0.09875609  1
  C  C130  1  0.35994488  0.70358396  0.15462972  1
  C  C131  1  0.23564813  0.66964400  0.20552780  1
  O  O132  1  0.41536666  0.84718544  0.18498343  1
  H  H133  1  0.43482894  0.61020614  0.09408345  1
  O  O134  1  0.47784170  0.75731734  0.10894845  1
  C  C135  1  0.11328078  0.54001032  0.17645130  1
  C  C136  1  0.00167484  0.61447492  0.14137674  1
  H  H137  1  0.28644353  0.79396340  0.22620006  1
  O  O138  1  0.36315881  0.90239052  0.00335718  1
  C  C139  1  0.27994378  0.99319022  0.14498158  1
  H  H140  1  0.11623531  0.88918171  0.00383630  1
  H  H141  1  0.17822248  0.68825994  0.23315145  1
  C  C142  1  0.45259077  0.57139718  0.30768378  1
  N  N143  1  0.41178928  0.63869613  0.33490027  1
  H  H144  1  0.14307890  0.78002731  0.38347386  1
  C  C145  1  0.20442847  0.80222313  0.39491422  1
  C  C146  1  0.34642768  0.60562161  0.36676290  1
  C  C147  1  0.44268170  0.96192500  0.37078922  1
  H  H148  1  0.06159519  0.64030032  0.28317440  1
  O  O149  1  0.08740434  0.68924286  0.30732851  1
  N  N150  1  0.33939787  0.80326061  0.37853520  1
  C  C151  1  0.27872844  0.65701509  0.38851198  1
  H  H152  1  0.39028898  0.78442638  0.35125621  1
  C  C153  1  0.27261717  0.74888452  0.38987130  1
  O  O154  1  0.01689829  0.81382183  0.32997520  1
  H  H155  1  0.19052584  0.94244810  0.40373607  1
  C  C156  1  0.21054930  0.60813540  0.42316545  1
  C  C157  1  0.31336817  0.88729688  0.39246615  1
  C  C158  1  0.22893840  0.88741708  0.39744388  1
  C  C159  1  0.35982294  0.96473000  0.38548740  1
  C  C160  1  0.01508907  0.73760540  0.33127220  1
  C  C161  1  0.08790311  0.51743711  0.48159143  1
  N  N162  1  0.48707355  0.89626776  0.34780840  1
  C  C163  1  0.18788226  0.53355089  0.37654520  1
  C  C164  1  0.35613691  0.51273108  0.37968342  1
  Na  Na165  1  0.48866338  0.62608383  0.48651907  1
  H  H166  1  0.49839698  0.73650497  0.29882947  1
  H  H167  1  0.22013051  0.51563165  0.31886522  1
  C  C168  1  0.48257189  0.62372071  0.68731287  1
  N  N169  1  0.46862725  0.55000774  0.64629410  1
  C  C170  1  0.44470905  0.77940078  0.55469379  1
  O  O171  1  0.40019710  0.71589392  0.56115753  1
  C  C172  1  0.41318945  0.64645711  0.73738406  1
  C  C173  1  0.11692570  0.58046048  0.53546057  1
  C  C174  1  0.32660468  0.91188371  0.70014430  1
  C  C175  1  0.41713592  0.85790867  0.59970453  1
  C  C176  1  0.35046637  0.84216508  0.65295504  1
  H  H177  1  0.09225038  0.59450399  0.59942013  1
  H  H178  1  0.29160318  0.60042340  0.72218513  1
  C  C179  1  0.35476885  0.58984193  0.71632488  1
  C  C180  1  0.39330364  0.53023081  0.65778870  1
  H  H181  1  0.32730566  0.77683113  0.66102432  1
  H  H182  1  0.19765089  0.69207671  0.53196164  1
  C  C183  1  0.46084966  0.93171296  0.59228322  1
  H  H184  1  0.27568877  0.90939954  0.74393757  1
  H  H185  1  0.29796724  0.96464363  0.53617108  1
  C  C186  1  0.36377793  0.99643760  0.68925136  1
  C  C187  1  0.17555726  0.63117641  0.50195965  1
  C  C188  1  0.14063526  0.68941406  0.96516592  1
  C  C189  1  0.21044407  0.53244379  0.96343184  1
  C  C190  1  0.37540778  0.52405093  0.89903479  1
  H  H191  1  0.02748415  0.62218206  0.95200941  1
  H  H192  1  0.36247156  0.59516992  0.90339168  1
  H  H193  1  0.47443176  0.53287934  0.81029504  1
  C  C194  1  0.12663067  0.53842140  0.96014245  1
  C  C195  1  0.25875821  0.60816765  0.97940356  1
  C  C196  1  0.09009126  0.61674063  0.95859929  1
  C  C197  1  0.22306946  0.68803503  0.97783520  1
  O  O198  1  0.03221539  0.78274560  0.97494511  1
  H  H199  1  0.40222196  0.71472132  0.76399912  1
  C  C200  1  0.09886922  0.77194273  0.97084914  1
  C  C201  1  0.34288572  0.97483547  0.99963157  1
  H  H202  1  0.31856895  0.60645479  0.98929949  1
  H  H203  1  0.25417092  0.74779625  0.99445628  1
  O  O204  1  0.14838157  0.85032309  0.97770912  1
  C  C205  1  0.88526492  0.42228565  0.23938266  1
  C  C206  1  0.81118098  0.38018217  0.21916366  1
  C  C207  1  0.55967642  0.05997465  0.18556464  1
  O  O208  1  0.62062725  0.03702197  0.15797784  1
  C  C209  1  0.60702876  0.40501957  0.11092975  1
  H  H210  1  0.66090967  0.39045468  0.07840063  1
  C  C211  1  0.61136361  0.47677870  0.16222348  1
  H  H212  1  0.76060915  0.41166102  0.18868377  1
  C  C213  1  0.53596148  0.36604275  0.08338506  1
  C  C214  1  0.54457042  0.29580193  0.01834539  1
  H  H215  1  0.78026549  0.47408191  0.08727604  1
  C  C216  1  0.97374892  0.00981569  0.07821691  1
  C  C217  1  0.54858868  0.13114750  0.24798120  1
  C  C218  1  0.61569640  0.22882126  0.33185482  1
  C  C219  1  0.54568250  0.34057540  0.41361354  1
  H  H220  1  0.67967769  0.13574033  0.25868003  1
  H  H221  1  0.86116282  0.48882285  0.40406288  1
  C  C222  1  0.60676174  0.40635694  0.40170422  1
  H  H223  1  0.66825876  0.26137264  0.35903733  1
  C  C224  1  0.54294401  0.26832693  0.35119212  1
  C  C225  1  0.88798396  0.30143288  0.30939380  1
  C  C226  1  0.88660432  0.21565981  0.44715411  1
  O  O227  1  0.98146655  0.42654812  0.46215809  1
  C  C228  1  0.56476406  0.00838471  0.38319007  1
  C  C229  1  0.65484804  0.40894501  0.32597549  1
  C  C230  1  0.80894581  0.24269603  0.46081154  1
  H  H231  1  0.77575032  0.26909101  0.40866620  1
  C  C232  1  0.92390445  0.23592630  0.36762247  1
  C  C233  1  0.71242024  0.46598293  0.34668914  1
  N  N234  1  0.62573141  0.47021840  0.45463450  1
  H  H235  1  0.61980554  0.04452187  0.39500678  1
  C  C236  1  0.62125980  0.15823710  0.28074552  1
  N  N237  1  0.93044422  0.36873585  0.28409867  1
  H  H238  1  0.64767662  0.37597054  0.26191302  1
  H  H239  1  0.97541764  0.05034653  0.36631193  1
  C  C240  1  0.99344356  0.19067816  0.33914634  1
  C  C241  1  0.81256329  0.31053772  0.27362035  1
  H  H242  1  0.76556449  0.26368958  0.28682093  1
  H  H243  1  0.76903800  0.47077634  0.31326442  1
  C  C244  1  0.88386706  0.14776602  0.58303914  1
  O  O245  1  0.80227993  0.09743987  0.73875061  1
  O  O246  1  0.77233785  0.40610492  0.56172856  1
  C  C247  1  0.76477579  0.14914003  0.67596460  1
  H  H248  1  0.70514186  0.23695162  0.54191709  1
  Na  Na249  1  0.91121190  0.36277945  0.58397902  1
  C  C250  1  0.76357202  0.43135993  0.65547989  1
  H  H251  1  0.90717359  0.10536572  0.63340825  1
  C  C252  1  0.80604221  0.17895410  0.59576097  1
  H  H253  1  0.51291945  0.30718760  0.66318845  1
  C  C254  1  0.68397926  0.42087843  0.68901135  1
  H  H255  1  0.63787412  0.35453724  0.57839989  1
  H  H256  1  0.72525587  0.43416349  0.54522539  1
  C  C257  1  0.62295564  0.37631171  0.64494641  1
  C  C258  1  0.76626397  0.22507838  0.53397886  1
  O  O259  1  0.69879294  0.17034095  0.68766417  1
  C  C260  1  0.55459768  0.35543161  0.68642287  1
  H  H261  1  0.50042253  0.42123764  0.57614774  1
  O  O262  1  0.81926824  0.45656666  0.69169741  1
  H  H263  1  0.98724335  0.14345883  0.50614796  1
  H  H264  1  0.99096597  0.01422323  0.52485592  1
  C  C265  1  0.92876394  0.16325480  0.51114731  1
  H  H266  1  0.52025316  0.04931236  0.74395790  1
  O  O267  1  0.98599926  0.49483375  0.58439546  1
  C  C268  1  0.53043137  0.18854563  0.77161582  1
  H  H269  1  0.60851584  0.45604376  0.88551634  1
  O  O270  1  0.58480827  0.03104556  0.87654402  1
  C  C271  1  0.67677706  0.44979951  0.77475193  1
  C  C272  1  0.60992591  0.43338361  0.81846354  1
  C  C273  1  0.55190125  0.38533554  0.77427204  1
  H  H274  1  0.59428632  0.20023779  0.76685979  1
  O  O275  1  0.60019881  0.25803880  0.99691464  1
  H  H276  1  0.72065171  0.48833429  0.80253526  1
  H  H277  1  0.76483159  0.10356643  0.78601245  1
  O  O278  1  0.88251861  0.88606224  0.11130377  1
  O  O279  1  0.91527554  0.98842420  0.21123483  1
  C  C280  1  0.68445275  0.75681463  0.08432673  1
  Na  Na281  1  0.55596268  0.87145498  0.15224075  1
  C  C282  1  0.84443632  0.56349897  0.17001007  1
  O  O283  1  0.63256634  0.74903966  0.03672590  1
  H  H284  1  0.90216345  0.88232785  0.05230124  1
  H  H285  1  0.96181884  0.66296709  0.11522822  1
  C  C286  1  0.80439183  0.71540592  0.16738234  1
  C  C287  1  0.85043839  0.65316043  0.20098269  1
  H  H288  1  0.81095007  0.78161065  0.19382883  1
  C  C289  1  0.98400800  0.54079355  0.19403018  1
  O  O290  1  0.69793077  0.84711718  0.13179161  1
  C  C291  1  0.73981577  0.60952751  0.07512461  1
  H  H292  1  0.74984823  0.84954203  0.12039541  1
  C  C293  1  0.74428523  0.69312251  0.10792111  1
  C  C294  1  0.78788122  0.54353657  0.10731947  1
  C  C295  1  0.92413150  0.96423066  0.13969989  1
  H  H296  1  0.70243259  0.58414975  0.24630690  1
  H  H297  1  0.66517683  0.50753003  0.18156987  1
  C  C298  1  0.90661330  0.50918976  0.20754521  1
  C  C299  1  0.53831084  0.50028489  0.19947919  1
  H  H300  1  0.69375728  0.59306993  0.02733167  1
  C  C301  1  0.82995320  0.94183023  0.38253753  1
  C  C302  1  0.76076409  0.92537266  0.34320134  1
  H  H303  1  0.75334451  0.93965985  0.27900741  1
  C  C304  1  0.88628062  0.74155095  0.39764508  1
  H  H305  1  0.74652693  0.74682325  0.30335746  1
  H  H306  1  0.89738299  0.81246552  0.39807530  1
  C  C307  1  0.62531301  0.85706609  0.34855505  1
  C  C308  1  0.87356957  0.55869218  0.40661227  1
  O  O309  1  0.96170715  0.99292210  0.47697992  1
  C  C310  1  0.80939525  0.61094458  0.43128154  1
  C  C311  1  0.70023445  0.88409862  0.38880079  1
  C  C312  1  0.62145379  0.76832730  0.32138020  1
  C  C313  1  0.81821825  0.70548560  0.42522579  1
  C  C314  1  0.58412581  0.63531428  0.27179499  1
  C  C315  1  0.68681664  0.71601955  0.30241127  1
  C  C316  1  0.94172882  0.59705518  0.37487637  1
  N  N317  1  0.55481451  0.71925642  0.30160124  1
  C  C318  1  0.56014664  0.91910943  0.35420159  1
  C  C319  1  0.94708991  0.68703832  0.36503230  1
  C  C320  1  0.83744311  0.91847140  0.47050193  1
  H  H321  1  0.99126710  0.55269246  0.35718784  1
  C  C322  1  0.73829987  0.57340433  0.46911696  1
  C  C323  1  0.52426374  0.57237741  0.25822572  1
  H  H324  1  0.87799440  0.97418971  0.34721822  1
  H  H325  1  0.77293380  0.74907654  0.44453772  1
  C  C326  1  0.70679437  0.85753021  0.47339481  1
  C  C327  1  0.69547132  0.50348342  0.42995762  1
  H  H328  1  0.88597888  0.66555459  0.25819599  1
  C  C329  1  0.66534420  0.63364349  0.27181573  1
  C  C330  1  0.62665949  0.64747955  0.65009337  1
  H  H331  1  0.80391878  0.70675781  0.57822896  1
  C  C332  1  0.69718169  0.69603688  0.66189178  1
  N  N333  1  0.63242503  0.58976121  0.57690154  1
  C  C334  1  0.70637732  0.61530682  0.54168814  1
  H  H335  1  0.78673725  0.86341066  0.58216421  1
  C  C336  1  0.55869790  0.66614121  0.69680777  1
  C  C337  1  0.77747023  0.87832578  0.51572115  1
  H  H338  1  0.58719736  0.82646843  0.64867624  1
  C  C339  1  0.74419371  0.68003253  0.59069848  1
  H  H340  1  0.62722686  0.52391383  0.58970757  1
  C  C341  1  0.90606690  0.94402733  0.52150860  1
  H  H342  1  0.70991172  0.74493449  0.71522492  1
  H  H343  1  0.66010060  0.82064209  0.50564379  1
  O  O344  1  0.91996716  0.92001659  0.59181133  1
  C  C345  1  0.58005339  0.82391949  0.71813893  1
  H  H346  1  0.51419991  0.93396943  0.55244902  1
  H  H347  1  0.60592669  0.95766929  0.74077168  1
  O  O348  1  0.50393615  0.77897462  0.50790161  1
  C  C349  1  0.56578100  0.88308228  0.85316173  1
  H  H350  1  0.95537490  0.92682724  0.96387671  1
  C  C351  1  0.56488743  0.96011469  0.90888900  1
  C  C352  1  0.58705390  0.89523276  0.76732376  1
  O  O353  1  0.54382321  0.95813974  0.98549955  1
  C  C354  1  0.53141174  0.73025999  0.83870848  1
  C  C355  1  0.53657284  0.80491786  0.88849174  1
  H  H356  1  0.51632002  0.80534914  0.95628578  1
  C  C357  1  0.98336055  0.98482240  0.99098513  1
  H  H358  1  0.51606309  0.66432021  0.86553186  1
  C  C359  1  0.55555576  0.74361916  0.75324612  1
