# generated using pymatgen
data_Zn2H25C36N3O7
_symmetry_space_group_name_H-M   'P 1'
_cell_length_a   5.95937618
_cell_length_b   31.12302170
_cell_length_c   33.62774994
_cell_angle_alpha   90.00000000
_cell_angle_beta   90.00000000
_cell_angle_gamma   90.00000000
_symmetry_Int_Tables_number   1
_chemical_formula_structural   Zn2H25C36N3O7
_chemical_formula_sum   'Zn16 H200 C288 N24 O56'
_cell_volume   6237.06637220
_cell_formula_units_Z   8
loop_
 _symmetry_equiv_pos_site_id
 _symmetry_equiv_pos_as_xyz
  1  'x, y, z'
loop_
 _atom_site_type_symbol
 _atom_site_label
 _atom_site_symmetry_multiplicity
 _atom_site_fract_x
 _atom_site_fract_y
 _atom_site_fract_z
 _atom_site_occupancy
  C  C0  1  0.13587020  0.13577456  0.13485184  1
  C  C1  1  0.20568429  0.14289944  0.17562125  1
  H  H2  1  0.22956496  0.13944585  0.07322284  1
  C  C3  1  0.28243063  0.14299602  0.10393163  1
  H  H4  1  0.10677827  0.03035499  0.16803544  1
  H  H5  1  0.32523789  0.24097687  0.13712773  1
  C  C6  1  0.00257906  0.03118582  0.14155322  1
  C  C7  1  0.06037274  0.04889641  0.10650875  1
  H  H8  1  0.16497162  0.22224952  0.17984812  1
  H  H9  1  0.04497565  0.01448717  0.03074072  1
  N  N10  1  0.02542228  0.06760602  0.07267596  1
  C  C11  1  0.30545588  0.24901716  0.07174275  1
  H  H12  1  0.46797618  0.23570711  0.06437740  1
  C  C13  1  0.41286997  0.16168434  0.18332421  1
  C  C14  1  0.03326418  0.12958866  0.20761497  1
  C  C15  1  0.05385432  0.14545146  0.24662241  1
  H  H16  1  0.47579602  0.03526095  0.10303845  1
  C  C17  1  0.03205830  0.24428149  0.18848163  1
  H  H18  1  0.46540015  0.16505190  0.21447585  1
  C  C19  1  0.23184941  0.25339363  0.11144568  1
  C  C20  1  0.17661107  0.26268034  0.03900180  1
  C  C21  1  0.03758045  0.49369963  0.18246183  1
  C  C22  1  0.00756176  0.27132255  0.11810230  1
  O  O23  1  0.44700529  0.42457521  0.23310691  1
  O  O24  1  0.16982673  0.37811822  0.22994751  1
  C  C25  1  0.03876838  0.49319878  0.13757129  1
  C  C26  1  0.34227532  0.39604082  0.21637141  1
  C  C27  1  0.27062507  0.35497141  0.15244669  1
  C  C28  1  0.41084759  0.38322771  0.17454341  1
  C  C29  1  0.34317528  0.34657709  0.11453483  1
  H  H30  1  0.21801090  0.32871774  0.09422249  1
  H  H31  1  0.25112386  0.38868369  0.03505855  1
  C  C32  1  0.42851629  0.38372933  0.02503858  1
  C  C33  1  0.11938812  0.48512756  0.01129802  1
  H  H34  1  0.10276201  0.34327148  0.16500563  1
  C  C35  1  0.08501630  0.48998119  0.05473309  1
  C  C36  1  0.37600426  0.16685931  0.31947339  1
  H  H37  1  0.25775671  0.19169787  0.46489891  1
  C  C38  1  0.34669359  0.12512762  0.33323171  1
  C  C39  1  0.23766013  0.19961466  0.33366427  1
  H  H40  1  0.24511246  0.13674224  0.46879846  1
  H  H41  1  0.24754476  0.05836236  0.46584301  1
  C  C42  1  0.17627257  0.11926153  0.36325331  1
  H  H43  1  0.12641385  0.04786206  0.30791440  1
  C  C44  1  0.09164216  0.03901892  0.33775937  1
  C  C45  1  0.10273496  0.07289163  0.36669585  1
  C  C46  1  0.00520537  0.05811608  0.40360155  1
  C  C47  1  0.22242526  0.20921744  0.49231845  1
  C  C48  1  0.18394995  0.11999430  0.49460855  1
  C  C49  1  0.26270739  0.24376969  0.31421997  1
  C  C50  1  0.03765117  0.15341721  0.37761852  1
  H  H51  1  0.35628713  0.00933486  0.39928536  1
  C  C52  1  0.20086915  0.07590664  0.49344961  1
  H  H53  1  0.19524962  0.16850292  0.25111755  1
  H  H54  1  0.43584231  0.09830254  0.32016179  1
  C  C55  1  0.07390602  0.19469661  0.36353480  1
  O  O56  1  0.42317464  0.24934102  0.29129931  1
  O  O57  1  0.48931227  0.01290675  0.41281351  1
  H  H58  1  0.04502005  0.23001420  0.25643883  1
  H  H59  1  0.35278163  0.26840503  0.46447513  1
  O  O60  1  0.09764600  0.37504430  0.34083594  1
  O  O61  1  0.04941294  0.36563394  0.49486121  1
  H  H62  1  0.49418257  0.46028791  0.42067116  1
  H  H63  1  0.12358680  0.34698018  0.33098782  1
  O  O64  1  0.12642927  0.27065520  0.32647292  1
  O  O65  1  0.06241775  0.39482072  0.43522974  1
  C  C66  1  0.01534390  0.39652590  0.47165980  1
  C  C67  1  0.26285509  0.25327235  0.48893825  1
  H  H68  1  0.01308907  0.47788687  0.43766610  1
  C  C69  1  0.19895060  0.14934968  0.68038597  1
  C  C70  1  0.26062990  0.12634242  0.71505351  1
  C  C71  1  0.15626795  0.18931326  0.52929718  1
  C  C72  1  0.15292518  0.19454574  0.67991802  1
  C  C73  1  0.16505670  0.12446243  0.64254254  1
  O  O74  1  0.17058352  0.08682395  0.64373560  1
  O  O75  1  0.08411805  0.14638053  0.61172368  1
  H  H76  1  0.07583701  0.05325534  0.59142175  1
  C  C77  1  0.12180216  0.07189747  0.56441616  1
  C  C78  1  0.17256132  0.05261183  0.52956972  1
  C  C79  1  0.14863598  0.14246814  0.53007436  1
  C  C80  1  0.07995893  0.11939760  0.56722292  1
  H  H81  1  0.30730718  0.09311940  0.71455159  1
  C  C82  1  0.15322217  0.21423173  0.71699838  1
  C  C83  1  0.10529660  0.22015409  0.56007350  1
  H  H84  1  0.04166975  0.20716546  0.59042343  1
  H  H85  1  0.11730538  0.21342914  0.65182353  1
  C  C86  1  0.19358454  0.00262335  0.53143396  1
  C  C87  1  0.09992918  0.04416143  0.73788887  1
  H  H88  1  0.10594280  0.24897776  0.71902533  1
  H  H89  1  0.02707748  0.05921035  0.71132957  1
  N  N90  1  0.13205143  0.00290531  0.72918038  1
  C  C91  1  0.44563479  0.49386279  0.67211572  1
  C  C92  1  0.21093886  0.33663165  0.62989615  1
  C  C93  1  0.25436252  0.47921877  0.59281419  1
  H  H94  1  0.45624183  0.32564802  0.69445532  1
  O  O95  1  0.35468285  0.30649720  0.62975215  1
  C  C96  1  0.06135481  0.43013889  0.69831838  1
  O  O97  1  0.36982875  0.40017811  0.55848923  1
  H  H98  1  0.18304286  0.47319416  0.56406485  1
  H  H99  1  0.11246453  0.29231175  0.57186853  1
  C  C100  1  0.07734620  0.40505963  0.66399711  1
  C  C101  1  0.33883609  0.38277698  0.72976543  1
  C  C102  1  0.21476527  0.36782454  0.66303502  1
  C  C103  1  0.46963241  0.41087601  0.58923056  1
  Zn  Zn104  1  0.36913025  0.34412919  0.51755049  1
  C  C105  1  0.41246869  0.45232162  0.61016474  1
  O  O106  1  0.06811339  0.33817020  0.60305734  1
  C  C107  1  0.35331813  0.35792126  0.69586065  1
  C  C108  1  0.19099056  0.41962552  0.73285770  1
  N  N109  1  0.24221738  0.27967928  0.51945217  1
  C  C110  1  0.14289923  0.26231491  0.55123553  1
  C  C111  1  0.18323024  0.05349634  0.84993364  1
  C  C112  1  0.12276439  0.09760056  0.85816292  1
  C  C113  1  0.13856953  0.11445100  0.89661917  1
  C  C114  1  0.20933125  0.08688693  0.92726589  1
  C  C115  1  0.21887906  0.10092843  0.96991518  1
  C  C116  1  0.25351782  0.04297821  0.92309308  1
  C  C117  1  0.27686282  0.20088709  0.82732316  1
  C  C118  1  0.24485577  0.02774492  0.88425608  1
  H  H119  1  0.30008407  0.02283076  0.94891729  1
  C  C120  1  0.18336695  0.03364458  0.80876194  1
  C  C121  1  0.11002460  0.05947811  0.77760356  1
  C  C122  1  0.21223132  0.21731305  0.78994184  1
  H  H123  1  0.32075121  0.12776453  0.77743253  1
  O  O124  1  0.19258912  0.14105335  0.97476099  1
  H  H125  1  0.32391840  0.16832597  0.83141883  1
  H  H126  1  0.11981047  0.14786118  0.90044485  1
  H  H127  1  0.30072639  0.22038011  0.89154759  1
  C  C128  1  0.25515339  0.22896296  0.86044277  1
  H  H129  1  0.04072610  0.11484898  0.83387902  1
  C  C130  1  0.22481456  0.19195867  0.75171350  1
  H  H131  1  0.03260216  0.09150939  0.78504996  1
  Zn  Zn132  1  0.48439867  0.18379406  0.98936222  1
  O  O133  1  0.43943252  0.24962323  0.98719078  1
  O  O134  1  0.23337042  0.07552966  0.99876139  1
  C  C135  1  0.27836646  0.14660458  0.75140852  1
  C  C136  1  0.12747812  0.26062301  0.79082595  1
  C  C137  1  0.11036415  0.28476713  0.82596849  1
  H  H138  1  0.03754149  0.36406203  0.99032457  1
  H  H139  1  0.39182883  0.40115805  0.81246546  1
  H  H140  1  0.41827627  0.40382260  0.95951586  1
  H  H141  1  0.29199226  0.44744645  0.87383371  1
  C  C142  1  0.32147630  0.49095043  0.94787492  1
  C  C143  1  0.02212139  0.45133049  0.94967618  1
  H  H144  1  0.06642080  0.27634204  0.76240573  1
  N  N145  1  0.17219740  0.26696846  0.86147491  1
  C  C146  1  0.19549877  0.44577855  0.77057381  1
  N  N147  1  0.19194675  0.46499847  0.92746391  1
  O  O148  1  0.12920951  0.28230521  0.97022286  1
  H  H149  1  0.03817467  0.31764783  0.82791951  1
  C  C150  1  0.28684386  0.43163279  0.80793003  1
  H  H151  1  0.43643967  0.37537937  0.75448144  1
  C  C152  1  0.26374827  0.45727554  0.84136963  1
  H  H153  1  0.46975665  0.49623196  0.92744190  1
  C  C154  1  0.24727968  0.26488466  0.99459357  1
  C  C155  1  0.14930260  0.49042102  0.76910175  1
  N  N156  1  0.17021003  0.49606731  0.83987585  1
  H  H157  1  0.34937794  0.52954686  0.13808494  1
  C  C158  1  0.30031629  0.72788276  0.01596294  1
  H  H159  1  0.37469963  0.53274151  0.06257075  1
  C  C160  1  0.41455121  0.71366876  0.04948782  1
  H  H161  1  0.44974696  0.72513254  0.11322675  1
  O  O162  1  0.18109371  0.50976355  0.20375479  1
  C  C163  1  0.36853838  0.73597607  0.08545759  1
  C  C164  1  0.22431783  0.51318479  0.11915169  1
  H  H165  1  0.32861061  0.74450362  0.15821282  1
  C  C166  1  0.24763962  0.51361529  0.07813374  1
  H  H167  1  0.42957163  0.52181517  0.00195789  1
  H  H168  1  0.00565906  0.85467666  0.10042033  1
  C  C169  1  0.42690686  0.98020594  0.16716257  1
  C  C170  1  0.32270957  0.96186480  0.19913274  1
  C  C171  1  0.14107112  0.76063468  0.01535457  1
  C  C172  1  0.16403453  0.79559473  0.12292899  1
  C  C173  1  0.06054763  0.83580164  0.12805327  1
  H  H174  1  0.35140333  0.98252898  0.13796436  1
  H  H175  1  0.49224501  0.81109172  0.07361743  1
  C  C176  1  0.29226998  0.92643293  0.04414903  1
  C  C177  1  0.24679227  0.80233004  0.19377994  1
  C  C178  1  0.10638037  0.78483975  0.04983703  1
  H  H179  1  0.35887635  0.91570947  0.07157521  1
  H  H180  1  0.43599314  0.84460877  0.14157758  1
  C  C181  1  0.03844517  0.85458058  0.16561639  1
  H  H182  1  0.15340757  0.94940997  0.19379801  1
  C  C183  1  0.21464713  0.76973102  0.08541554  1
  N  N184  1  0.20759432  0.96492139  0.05198622  1
  C  C185  1  0.11542206  0.98328814  0.02147907  1
  N  N186  1  0.11398486  0.83667603  0.19868995  1
  C  C187  1  0.25928993  0.77856296  0.15883073  1
  H  H188  1  0.32793357  0.79412306  0.22065788  1
  C  C189  1  0.44121863  0.96142955  0.23689962  1
  H  H190  1  0.34612613  0.87213066  0.00365832  1
  C  C191  1  0.29322008  0.90615913  0.00677604  1
  C  C192  1  0.26392805  0.62931814  0.35472320  1
  H  H193  1  0.31933123  0.71319999  0.38946304  1
  H  H194  1  0.35367286  0.69025920  0.28730447  1
  C  C195  1  0.26081103  0.58540703  0.34542525  1
  H  H196  1  0.29312091  0.58681143  0.46560515  1
  H  H197  1  0.39545306  0.64162917  0.37422127  1
  C  C198  1  0.41531424  0.61315205  0.46696091  1
  C  C199  1  0.38358471  0.65050077  0.48875032  1
  H  H200  1  0.36282514  0.63035286  0.28602602  1
  H  H201  1  0.40005045  0.53306042  0.45577170  1
  H  H202  1  0.34912661  0.55976992  0.36162548  1
  H  H203  1  0.39726705  0.55098407  0.27462979  1
  H  H204  1  0.44351369  0.74880275  0.48966121  1
  C  C205  1  0.19389421  0.72666295  0.36841364  1
  C  C206  1  0.05435912  0.70204428  0.34212937  1
  N  N207  1  0.13173262  0.56575166  0.31834309  1
  C  C208  1  0.08906562  0.65470524  0.33562208  1
  C  C209  1  0.45215641  0.71108137  0.26790885  1
  C  C210  1  0.45945950  0.62035436  0.26032893  1
  C  C211  1  0.48391749  0.57565793  0.25713321  1
  O  O212  1  0.19251398  0.98371601  0.49891632  1
  O  O213  1  0.44050238  0.94064160  0.30585519  1
  O  O214  1  0.45441395  0.84273919  0.27802014  1
  C  C215  1  0.42962049  0.75608956  0.27290073  1
  Zn  Zn216  1  0.02755987  0.91359629  0.39733042  1
  C  C217  1  0.18001458  0.77053978  0.37010376  1
  C  C218  1  0.04009782  0.83689105  0.34148430  1
  O  O219  1  0.32698780  0.92375240  0.42255102  1
  O  O220  1  0.19907333  0.85534241  0.36115524  1
  N  N221  1  0.02871965  0.98173118  0.38507360  1
  Zn  Zn222  1  0.06973992  0.86605462  0.25326609  1
  C  C223  1  0.33960440  0.94259683  0.27390347  1
  H  H224  1  0.31252435  0.76939360  0.29487078  1
  C  C225  1  0.01905959  0.78969868  0.34428500  1
  H  H226  1  0.31168408  0.90141199  0.44130767  1
  O  O227  1  0.13261105  0.92972140  0.27311805  1
  H  H228  1  0.07417422  0.96750763  0.32809891  1
  C  C229  1  0.06245199  0.99532176  0.34870555  1
  H  H230  1  0.28850547  0.79027514  0.38955347  1
  Zn  Zn231  1  0.45043738  0.96251205  0.46418095  1
  C  C232  1  0.45052132  0.78250223  0.49919494  1
  C  C233  1  0.16729826  0.72849645  0.56455295  1
  H  H234  1  0.33507050  0.71531151  0.55846584  1
  C  C235  1  0.19503761  0.51600725  0.61503164  1
  C  C236  1  0.28457981  0.52200096  0.65415714  1
  H  H237  1  0.07883749  0.54008817  0.60366612  1
  C  C238  1  0.07679458  0.59100260  0.66727016  1
  C  C239  1  0.22898448  0.55991264  0.68128073  1
  C  C240  1  0.01512237  0.62848397  0.68740000  1
  C  C241  1  0.01883717  0.70394839  0.58721774  1
  C  C242  1  0.27627272  0.61187191  0.73406124  1
  C  C243  1  0.31397260  0.57086308  0.71928632  1
  H  H244  1  0.03487547  0.66944028  0.59758349  1
  N  N245  1  0.13514552  0.64108088  0.71858165  1
  H  H246  1  0.08704365  0.50494618  0.74048299  1
  H  H247  1  0.22685867  0.66116038  0.50432552  1
  H  H248  1  0.42765134  0.54831041  0.73694353  1
  H  H249  1  0.00494177  0.58743705  0.63807416  1
  C  C250  1  0.23337275  0.78681304  0.64777485  1
  C  C251  1  0.46014692  0.86741883  0.52876988  1
  H  H252  1  0.42152176  0.90553483  0.66039874  1
  H  H253  1  0.48636277  0.90118428  0.53996027  1
  H  H254  1  0.19800789  0.85165436  0.56604106  1
  O  O255  1  0.22286131  0.98604446  0.56410212  1
  C  C256  1  0.00288393  0.90234825  0.62937176  1
  C  C257  1  0.29624791  0.79501134  0.52909464  1
  C  C258  1  0.30565554  0.83895244  0.54279440  1
  C  C259  1  0.09012697  0.81984697  0.63305707  1
  C  C260  1  0.11520273  0.76941165  0.54988013  1
  C  C261  1  0.15569355  0.86345290  0.63821138  1
  C  C262  1  0.03491796  0.93448505  0.65905963  1
  H  H263  1  0.15927719  0.92843175  0.68387335  1
  C  C264  1  0.43654681  0.79890838  0.66511115  1
  H  H265  1  0.18293447  0.75239519  0.64781383  1
  C  C266  1  0.37079878  0.87091151  0.65525152  1
  H  H267  1  0.26187120  0.94425248  0.74759578  1
  O  O268  1  0.25082597  0.70719913  0.94798856  1
  C  C269  1  0.33989754  0.69710844  0.97848516  1
  O  O270  1  0.45836652  0.66555842  0.98337864  1
  C  C271  1  0.15061945  0.51458528  0.80437882  1
  C  C272  1  0.29667661  0.50089026  0.98777916  1
  H  H273  1  0.12351511  0.55086018  0.80770525  1
  H  H274  1  0.34497416  0.62732745  0.76184431  1
  H  H275  1  0.30545559  0.99472259  0.87834164  1
  C  C276  1  0.26654751  0.99242466  0.79653535  1
  C  C277  1  0.18422921  0.85588690  0.86237344  1
  H  H278  1  0.05250225  0.76678146  0.98811034  1
  C  C279  1  0.29734820  0.85858108  0.93236636  1
  H  H280  1  0.33300112  0.96859286  0.81790123  1
  C  C281  1  0.23276667  0.97797159  0.75756788  1
  H  H282  1  0.47162906  0.91087328  0.89455001  1
  C  C283  1  0.29049563  0.83744657  0.89638778  1
  H  H284  1  0.39530342  0.84666571  0.95822820  1
  C  C285  1  0.20330741  0.90095773  0.93415454  1
  C  C286  1  0.11818655  0.96706323  0.98228478  1
  O  O287  1  0.33447189  0.80271372  0.81547830  1
  H  H288  1  0.36898303  0.80560548  0.89121754  1
  C  C289  1  0.18786328  0.83137726  0.82365292  1
  C  C290  1  0.06091473  0.89394557  0.86337930  1
  C  C291  1  0.20354530  0.92638511  0.97254543  1
  C  C292  1  0.09030553  0.91656135  0.89947573  1
  O  O293  1  0.05467606  0.84289854  0.79773978  1
  H  H294  1  0.44474331  0.88283943  0.82691992  1
  H  H295  1  0.02980018  0.98553080  0.96043375  1
  C  C296  1  0.65614498  0.16625678  0.07705477  1
  O  O297  1  0.83499025  0.18366300  0.07805551  1
  H  H298  1  0.81251592  0.08750009  0.17192305  1
  C  C299  1  0.85660044  0.10024686  0.20132667  1
  C  C300  1  0.72814889  0.08744418  0.23419627  1
  H  H301  1  0.71293715  0.18632606  0.15642453  1
  C  C302  1  0.81127811  0.05680050  0.07749883  1
  C  C303  1  0.66226855  0.03368292  0.10499648  1
  C  C304  1  0.76564143  0.01794197  0.14014879  1
  C  C305  1  0.55725257  0.17016878  0.15098633  1
  Zn  Zn306  1  0.53834787  0.07567718  0.04185331  1
  O  O307  1  0.57616514  0.15246790  0.04166264  1
  H  H308  1  0.57629290  0.06691621  0.23459450  1
  C  C309  1  0.97082415  0.24621962  0.22835404  1
  H  H310  1  0.95275177  0.00842655  0.21438216  1
  H  H311  1  0.96329317  0.12488668  0.12863679  1
  C  C312  1  0.50056952  0.15889499  0.11142971  1
  H  H313  1  0.61227806  0.32108986  0.23478115  1
  Zn  Zn314  1  0.52850412  0.49265470  0.21712083  1
  C  C315  1  0.86790377  0.47383259  0.11520222  1
  C  C316  1  0.96615646  0.28099355  0.04692223  1
  C  C317  1  0.86484926  0.36663861  0.00288510  1
  H  H318  1  0.93398947  0.35316131  0.06244589  1
  H  H319  1  0.72103659  0.41687206  0.18277434  1
  C  C320  1  0.93077789  0.27268325  0.15978182  1
  C  C321  1  0.69016635  0.38787687  0.12521014  1
  N  N322  1  0.81701247  0.27190482  0.24345915  1
  C  C323  1  0.54017983  0.36544198  0.09966035  1
  C  C324  1  0.57942808  0.36863856  0.05617016  1
  C  C325  1  0.62443830  0.39837326  0.16289749  1
  C  C326  1  0.86912317  0.28353825  0.08477574  1
  C  C327  1  0.89541061  0.47104402  0.07517351  1
  H  H328  1  0.76684348  0.45522076  0.05727712  1
  H  H329  1  0.66081682  0.31971425  0.15802836  1
  C  C330  1  0.72406552  0.29894675  0.21833053  1
  C  C331  1  0.76372881  0.29939569  0.17711715  1
  H  H332  1  0.69547896  0.29660304  0.08989255  1
  O  O333  1  0.86742571  0.47609351  0.19836707  1
  C  C334  1  0.80246123  0.36185319  0.04237447  1
  H  H335  1  0.86301873  0.39485589  0.11353756  1
  H  H336  1  0.86967002  0.29558655  0.02307052  1
  H  H337  1  0.71359224  0.46021768  0.12971193  1
  H  H338  1  0.79359207  0.44590946  0.00334399  1
  H  H339  1  0.70262573  0.06998440  0.47582793  1
  C  C340  1  0.66366887  0.16735968  0.47234628  1
  C  C341  1  0.59688420  0.19515714  0.40679136  1
  C  C342  1  0.75512416  0.20419438  0.49077373  1
  C  C343  1  0.69111209  0.23405937  0.42393157  1
  C  C344  1  0.57217437  0.16138383  0.43292298  1
  N  N345  1  0.75215304  0.10147266  0.27078546  1
  H  H346  1  0.92408612  0.14548440  0.40116706  1
  H  H347  1  0.51607697  0.12839023  0.42358902  1
  C  C348  1  0.92787267  0.12548616  0.27764951  1
  H  H349  1  0.93136693  0.13611951  0.30892246  1
  H  H350  1  0.97677643  0.22237113  0.37451764  1
  H  H351  1  0.94108356  0.07929295  0.42778947  1
  C  C352  1  0.98499291  0.01340150  0.41039805  1
  H  H353  1  0.50381130  0.17274814  0.29435966  1
  H  H354  1  0.52724734  0.19336359  0.37687749  1
  H  H355  1  0.61141927  0.00166530  0.39636400  1
  C  C356  1  0.76862306  0.23828905  0.46362220  1
  H  H357  1  0.84110751  0.26920306  0.47377781  1
  C  C358  1  0.55490450  0.49144658  0.40996335  1
  H  H359  1  0.94919002  0.32386277  0.26833527  1
  O  O360  1  0.63117550  0.26675816  0.36112915  1
  O  O361  1  0.83973793  0.45458505  0.31695751  1
  C  C362  1  0.94566127  0.47625717  0.46849088  1
  O  O363  1  0.66299120  0.41600863  0.36266057  1
  C  C364  1  0.68826939  0.27179799  0.39616912  1
  O  O365  1  0.84395350  0.34100814  0.28486512  1
  O  O366  1  0.76626908  0.30650866  0.40905471  1
  C  C367  1  0.69434893  0.48965117  0.37550037  1
  Zn  Zn368  1  0.76204027  0.28240256  0.30733371  1
  C  C369  1  0.95742838  0.43818219  0.48982057  1
  Zn  Zn370  1  0.97267045  0.39794280  0.28631744  1
  Zn  Zn371  1  0.87785525  0.36497394  0.38592073  1
  C  C372  1  0.74300226  0.45105104  0.35012546  1
  C  C373  1  0.71925207  0.11084939  0.68476346  1
  H  H374  1  0.77167780  0.12625077  0.65585355  1
  H  H375  1  0.71998198  0.02884922  0.54203992  1
  C  C376  1  0.67936629  0.06289554  0.53865300  1
  N  N377  1  0.65839781  0.07126619  0.67797564  1
  C  C378  1  0.77047693  0.12771125  0.72255533  1
  C  C379  1  0.58701582  0.04722120  0.70945697  1
  Zn  Zn380  1  0.64512653  0.04403078  0.62437514  1
  N  N381  1  0.62284917  0.07730623  0.57449947  1
  C  C382  1  0.57619164  0.14624000  0.54252095  1
  C  C383  1  0.56049757  0.11877037  0.57611080  1
  H  H384  1  0.84471789  0.15968812  0.72529973  1
  O  O385  1  0.60990769  0.19854448  0.64465881  1
  H  H386  1  0.89467289  0.12275935  0.57701134  1
  H  H387  1  0.51271289  0.12999775  0.60735664  1
  H  H388  1  0.53346932  0.01588279  0.69703342  1
  C  C389  1  0.68969450  0.23358283  0.64735192  1
  C  C390  1  0.68026551  0.08718130  0.50357953  1
  C  C391  1  0.64218573  0.13179179  0.50392111  1
  H  H392  1  0.80192012  0.20540263  0.52241424  1
  C  C393  1  0.63320678  0.24273476  0.72348066  1
  H  H394  1  0.55114642  0.21004782  0.72422522  1
  C  C395  1  0.60587120  0.06188037  0.74970369  1
  H  H396  1  0.53786920  0.17879819  0.54750056  1
  H  H397  1  0.50496409  0.49704104  0.70247186  1
  H  H398  1  0.63789989  0.43860849  0.65820389  1
  C  C399  1  0.82210000  0.29779221  0.68842710  1
  H  H400  1  0.94386696  0.45782248  0.69770696  1
  C  C401  1  0.90166978  0.43859670  0.53209044  1
  H  H402  1  0.92193606  0.34986676  0.72483718  1
  H  H403  1  0.92650805  0.31103179  0.66333255  1
  H  H404  1  0.78910954  0.47230563  0.58506422  1
  H  H405  1  0.96897633  0.41438106  0.63876871  1
  H  H406  1  0.91548809  0.40718817  0.54707055  1
  H  H407  1  0.56097507  0.28911974  0.53912960  1
  O  O408  1  0.75747268  0.25527816  0.61588158  1
  C  C409  1  0.82352678  0.32104079  0.72323946  1
  O  O410  1  0.63045942  0.39027829  0.60236136  1
  C  C411  1  0.82281787  0.47359121  0.55244931  1
  C  C412  1  0.70858995  0.25856313  0.68594303  1
  O  O413  1  0.64347640  0.31476558  0.54153490  1
  Zn  Zn414  1  0.69120352  0.32029808  0.60357897  1
  C  C415  1  0.50681301  0.45960537  0.64767048  1
  C  C416  1  0.70281209  0.12615679  0.79567424  1
  C  C417  1  0.78563907  0.16896893  0.79833399  1
  C  C418  1  0.73802970  0.16166401  0.87074341  1
  C  C419  1  0.61325205  0.10340626  0.82962342  1
  C  C420  1  0.61584877  0.12248964  0.86668687  1
  C  C421  1  0.81780958  0.18334112  0.83719140  1
  C  C422  1  0.76965714  0.17609625  0.91393597  1
  O  O423  1  0.68000014  0.15640289  0.94272035  1
  C  C424  1  0.76271004  0.05038855  0.95993768  1
  H  H425  1  0.91033615  0.04292409  0.90334820  1
  C  C426  1  0.79925500  0.02769696  0.92510674  1
  H  H427  1  0.80175181  0.08546726  0.96482231  1
  O  O428  1  0.84504850  0.21241517  0.91644665  1
  H  H429  1  0.84395814  0.18691419  0.77240403  1
  N  N430  1  0.65721906  0.03325991  0.99065231  1
  H  H431  1  0.90609334  0.21441775  0.84209226  1
  H  H432  1  0.54349290  0.10645546  0.89111420  1
  H  H433  1  0.86853301  0.01621486  0.84426300  1
  C  C434  1  0.69320279  0.10295321  0.75670200  1
  H  H435  1  0.55905252  0.07133761  0.82510045  1
  H  H436  1  0.53873201  0.04253010  0.77253889  1
  H  H437  1  0.89647196  0.42671801  0.83858660  1
  N  N438  1  0.75041357  0.37680572  0.86958111  1
  C  C439  1  0.95375229  0.45878634  0.98817053  1
  H  H440  1  0.50171571  0.28673963  0.83176806  1
  H  H441  1  0.52883663  0.25229956  0.78436753  1
  H  H442  1  0.58959268  0.32832670  0.89673366  1
  H  H443  1  0.82436399  0.39661154  0.77101997  1
  C  C444  1  0.60229051  0.31707784  0.83167269  1
  C  C445  1  0.81411035  0.39489135  0.83547316  1
  C  C446  1  0.71513902  0.30706938  0.75826659  1
  C  C447  1  0.50139460  0.38884525  0.98618560  1
  C  C448  1  0.76975501  0.37756826  0.79750375  1
  Zn  Zn449  1  0.82431705  0.40632927  0.92147092  1
  N  N450  1  0.71879944  0.38287983  0.97697936  1
  C  C451  1  0.63434177  0.34033251  0.86612762  1
  C  C452  1  0.68939423  0.33523881  0.79500999  1
  C  C453  1  0.62953328  0.26405772  0.75999501  1
  H  H454  1  0.88313851  0.64186282  0.19553152  1
  H  H455  1  0.89551452  0.69914472  0.20272768  1
  C  C456  1  0.77265821  0.71772403  0.22071019  1
  C  C457  1  0.77160054  0.62181888  0.21257330  1
  C  C458  1  0.74826323  0.57794624  0.20842402  1
  H  H459  1  0.84294717  0.55968489  0.18435890  1
  C  C460  1  0.60955524  0.69236783  0.24171951  1
  C  C461  1  0.61612543  0.64490909  0.23797545  1
  H  H462  1  0.51815461  0.68489942  0.04682130  1
  N  N463  1  0.59827908  0.55570435  0.22831568  1
  C  C464  1  0.65638478  0.80099922  0.00279013  1
  H  H465  1  0.95375604  0.88588575  0.16916310  1
  C  C466  1  0.57278573  0.84338796  0.08049387  1
  C  C467  1  0.71930423  0.84476836  0.01054870  1
  C  C468  1  0.74649803  0.76207762  0.22302660  1
  H  H469  1  0.88490456  0.92754436  0.04376088  1
  H  H470  1  0.98857964  0.81264511  0.04683491  1
  C  C471  1  0.53344026  0.86054550  0.11889131  1
  C  C472  1  0.77747861  0.90674475  0.06314251  1
  H  H473  1  0.85035174  0.78445204  0.20469858  1
  N  N474  1  0.61730839  0.89867260  0.13054629  1
  H  H475  1  0.52818945  0.98260776  0.01680880  1
  C  C476  1  0.69088706  0.86715379  0.05111473  1
  C  C477  1  0.73701280  0.91850220  0.10361719  1
  H  H478  1  0.81253721  0.94630298  0.11964207  1
  H  H479  1  0.57941342  0.78501063  0.02741819  1
  O  O480  1  0.73932688  0.84799261  0.23543831  1
  C  C481  1  0.65463566  0.99570065  0.17399772  1
  C  C482  1  0.78264183  0.99179770  0.20980399  1
  C  C483  1  0.66479598  0.97418073  0.24230083  1
  C  C484  1  0.58137587  0.77956510  0.24876656  1
  H  H485  1  0.93762265  0.63470894  0.42845066  1
  H  H486  1  0.82566388  0.65456469  0.29211286  1
  H  H487  1  0.79754537  0.70680280  0.29429507  1
  C  C488  1  0.77614572  0.63929386  0.44265925  1
  C  C489  1  0.79005079  0.52746814  0.36129704  1
  H  H490  1  0.88912021  0.54370373  0.47406611  1
  C  C491  1  0.76723946  0.56722801  0.38131423  1
  H  H492  1  0.84400373  0.59607711  0.36978739  1
  H  H493  1  0.88650322  0.57217598  0.27728816  1
  C  C494  1  0.60067198  0.60775446  0.44013047  1
  H  H495  1  0.88664464  0.52870755  0.33394290  1
  C  C496  1  0.98484481  0.59059302  0.29948529  1
  C  C497  1  0.94881619  0.63457093  0.30834688  1
  H  H498  1  0.84397871  0.70182386  0.47822704  1
  C  C499  1  0.62837328  0.56762088  0.41512185  1
  C  C500  1  0.90589641  0.72391817  0.31644268  1
  C  C501  1  0.72957687  0.67327640  0.46894016  1
  C  C502  1  0.88890556  0.51304021  0.48835125  1
  C  C503  1  0.50889296  0.53005760  0.42828020  1
  N  N504  1  0.55255603  0.67912149  0.49244193  1
  O  O505  1  0.91940166  0.85738732  0.31646089  1
  H  H506  1  0.94142978  0.99752943  0.43973003  1
  H  H507  1  0.60981115  0.91254880  0.39666670  1
  Zn  Zn508  1  0.52451613  0.87822888  0.33220116  1
  H  H509  1  0.74026639  0.97189639  0.27158380  1
  C  C510  1  0.87748401  0.76699114  0.31692148  1
  O  O511  1  0.87991227  0.87976776  0.45178053  1
  H  H512  1  0.73139773  0.80136589  0.46068083  1
  C  C513  1  0.58520024  0.82785574  0.25307513  1
  C  C514  1  0.61163350  0.81157110  0.48301776  1
  H  H515  1  0.76347430  0.78137419  0.29437674  1
  O  O516  1  0.71097601  0.91019469  0.37368357  1
  C  C517  1  0.75158154  0.88857071  0.47927052  1
  O  O518  1  0.72387076  0.92708789  0.49044746  1
  C  C519  1  0.60631124  0.85366778  0.49857118  1
  C  C520  1  0.66584049  0.55438056  0.59459484  1
  C  C521  1  0.76645009  0.54975214  0.55532799  1
  N  N522  1  0.82052484  0.72023301  0.59563072  1
  N  N523  1  0.64792864  0.63065617  0.59732601  1
  C  C524  1  0.61115159  0.59241432  0.61484360  1
  H  H525  1  0.62866565  0.52376053  0.60925828  1
  C  C526  1  0.73991137  0.63019228  0.56099540  1
  H  H527  1  0.56535715  0.58876128  0.64720881  1
  C  C528  1  0.80155782  0.59290497  0.53968645  1
  H  H529  1  0.77115626  0.66430198  0.55348778  1
  C  C530  1  0.82310541  0.51294662  0.52922930  1
  Zn  Zn531  1  0.59786395  0.68630157  0.62516944  1
  H  H532  1  0.88500264  0.65245205  0.67902948  1
  H  H533  1  0.87152589  0.59521456  0.50969076  1
  O  O534  1  0.52568685  0.72216913  0.67503152  1
  H  H535  1  0.93185796  0.99654494  0.68285432  1
  O  O536  1  0.68257020  0.92500565  0.72674436  1
  C  C537  1  0.52275603  0.84084495  0.67002401  1
  C  C538  1  0.89597988  0.78526132  0.55995391  1
  H  H539  1  0.91720115  0.81505580  0.62464489  1
  H  H540  1  0.80372874  0.88885318  0.57748245  1
  N  N541  1  0.77965942  0.98373532  0.62791495  1
  O  O542  1  0.78878236  0.76509742  0.69177952  1
  C  C543  1  0.90842988  0.97373054  0.65850905  1
  C  C544  1  0.60077060  0.76103684  0.67896039  1
  H  H545  1  0.83750723  0.81635781  0.54947903  1
  C  C546  1  0.84659521  0.91394113  0.59945954  1
  H  H547  1  0.58227600  0.76825255  0.58787813  1
  C  C548  1  0.75372184  0.75836076  0.58108407  1
  H  H549  1  0.62393874  0.96831421  0.57590844  1
  H  H550  1  0.67554848  0.85090144  0.68727433  1
  C  C551  1  0.74620951  0.95514536  0.59886817  1
  H  H552  1  0.79052503  0.74362333  0.83526064  1
  H  H553  1  0.80827541  0.51694099  0.92646607  1
  O  O554  1  0.77190377  0.50492439  0.90101116  1
  H  H555  1  0.92412366  0.50155315  0.89072627  1
  O  O556  1  0.72547502  0.75498534  0.88013600  1
  C  C557  1  0.59127705  0.96888471  0.95250519  1
  C  C558  1  0.63899739  0.90745398  0.75865444  1
  H  H559  1  0.60116942  0.75260678  0.95649905  1
  O  O560  1  0.85018689  0.75184081  0.80562885  1
  H  H561  1  0.96678169  0.77445081  0.80989952  1
  C  C562  1  0.79896950  0.85435363  0.93803645  1
  H  H563  1  0.97360273  0.90596937  0.83744663  1
  H  H564  1  0.82974629  0.98406178  0.77813456  1
  C  C565  1  0.65696286  0.92948248  0.79855985  1
  C  C566  1  0.74469390  0.81083490  0.93312207  1
  C  C567  1  0.56281979  0.92779570  0.87040907  1
  C  C568  1  0.67560921  0.96760085  0.87654607  1
  O  O569  1  0.75286500  0.82158094  0.86556902  1
  H  H570  1  0.52726559  0.93661305  0.94772856  1
  H  H571  1  0.84196908  0.87389158  0.91151676  1
  C  C572  1  0.78522216  0.87011799  0.97746744  1
  C  C573  1  0.76058281  0.98730113  0.84185850  1
  H  H574  1  0.84520791  0.90324319  0.98267534  1
  C  C575  1  0.75528382  0.96971430  0.80378363  1
  O  O576  1  0.57028817  0.86870202  0.75894927  1
  C  C577  1  0.73669906  0.79203791  0.89033444  1
  Zn  Zn578  1  0.70066392  0.82069009  0.79761623  1
  C  C579  1  0.54131069  0.91245323  0.83210779  1
  C  C580  1  0.59888675  0.99228651  0.98777003  1
  C  C581  1  0.67650132  0.78379899  0.96463932  1
  C  C582  1  0.68299993  0.98751417  0.91853476  1
  H  H583  1  0.99352638  0.94707181  0.90337824  1
