# generated using pymatgen
data_ZnH18(C13N5)2
_symmetry_space_group_name_H-M   'P 1'
_cell_length_a   19.92429317
_cell_length_b   7.50595515
_cell_length_c   30.61639108
_cell_angle_alpha   90.00000000
_cell_angle_beta   90.00000000
_cell_angle_gamma   90.00000000
_symmetry_Int_Tables_number   1
_chemical_formula_structural   ZnH18(C13N5)2
_chemical_formula_sum   'Zn8 H144 C208 N80'
_cell_volume   4578.70733943
_cell_formula_units_Z   8
loop_
 _symmetry_equiv_pos_site_id
 _symmetry_equiv_pos_as_xyz
  1  'x, y, z'
loop_
 _atom_site_type_symbol
 _atom_site_label
 _atom_site_symmetry_multiplicity
 _atom_site_fract_x
 _atom_site_fract_y
 _atom_site_fract_z
 _atom_site_occupancy
  N  N0  1  0.05256521  0.08190296  0.20868629  1
  C  C1  1  0.03818302  0.22297766  0.18422275  1
  C  C2  1  0.38515531  0.11850571  0.24385926  1
  C  C3  1  0.17252734  0.00805774  0.01870660  1
  N  N4  1  0.27103270  0.40961240  0.02469883  1
  H  H5  1  0.16164645  0.15021113  0.02579023  1
  H  H6  1  0.36608196  0.16253806  0.21123878  1
  C  C7  1  0.32369682  0.31176110  0.03479316  1
  N  N8  1  0.37714399  0.33541418  0.05848276  1
  C  C9  1  0.11624256  0.40713199  0.21448915  1
  C  C10  1  0.01750080  0.46280867  0.00008167  1
  N  N11  1  0.06794381  0.38280467  0.18529565  1
  C  C12  1  0.49696766  0.44714446  0.08304205  1
  C  C13  1  0.36978037  0.49503507  0.07544089  1
  C  C14  1  0.09133154  0.13824834  0.23939210  1
  H  H15  1  0.32073233  0.16539471  0.02221766  1
  H  H16  1  0.49502204  0.34227352  0.05716743  1
  N  N17  1  0.12529315  0.29030267  0.24581334  1
  C  C18  1  0.28314934  0.19732967  0.36327623  1
  N  N19  1  0.30339850  0.14680543  0.40183431  1
  H  H20  1  0.07917813  0.09633279  0.42287525  1
  H  H21  1  0.41814307  0.38872629  0.32243100  1
  C  C22  1  0.41050486  0.25592224  0.30838894  1
  N  N23  1  0.00967533  0.16070082  0.46752889  1
  Zn  Zn24  1  0.04543201  0.43128501  0.47288065  1
  N  N25  1  0.48743538  0.22391720  0.41265618  1
  N  N26  1  0.07823595  0.18854699  0.35122483  1
  H  H27  1  0.41220516  0.08365366  0.36542802  1
  H  H28  1  0.31744773  0.28827166  0.34579985  1
  H  H29  1  0.20016022  0.18279008  0.31200394  1
  C  C30  1  0.18869089  0.48069336  0.46485627  1
  N  N31  1  0.38666916  0.05650614  0.47294568  1
  H  H32  1  0.09529113  0.02204978  0.26288338  1
  Zn  Zn33  1  0.38343433  0.25069975  0.42859580  1
  C  C34  1  0.22128232  0.14145430  0.34363457  1
  C  C35  1  0.03552998  0.04704307  0.43995679  1
  C  C36  1  0.10274515  0.02413384  0.35141279  1
  C  C37  1  0.40282491  0.09233937  0.32941032  1
  C  C38  1  0.17929141  0.03015859  0.36718637  1
  H  H39  1  0.48579389  0.49759367  0.38033663  1
  H  H40  1  0.49449196  0.10260573  0.26674115  1
  C  C41  1  0.01704583  0.18126741  0.33618098  1
  C  C42  1  0.26456220  0.02632284  0.42303936  1
  N  N43  1  0.13138271  0.48535229  0.44435101  1
  H  H44  1  0.29961115  0.46832568  0.46471495  1
  H  H45  1  0.17807586  0.42749765  0.49718843  1
  N  N46  1  0.40042894  0.26748502  0.26545320  1
  H  H47  1  0.37876417  0.01072592  0.67241748  1
  N  N48  1  0.04661921  0.23657975  0.61071000  1
  H  H49  1  0.47336832  0.30885135  0.57599512  1
  H  H50  1  0.25487740  0.32275133  0.56659645  1
  H  H51  1  0.38800171  0.32575762  0.63158307  1
  C  C52  1  0.03165898  0.30363991  0.57249184  1
  H  H53  1  0.49614354  0.14215063  0.50461511  1
  H  H54  1  0.37605528  0.02042576  0.58171894  1
  H  H55  1  0.38624872  0.24614480  0.51976015  1
  C  C56  1  0.42926265  0.25066649  0.64590952  1
  C  C57  1  0.21395093  0.29033012  0.72907713  1
  N  N58  1  0.05378605  0.43508763  0.54274639  1
  C  C59  1  0.09600419  0.14578996  0.69798406  1
  N  N60  1  0.48374971  0.35611314  0.64673896  1
  H  H61  1  0.22102093  0.42179291  0.66606362  1
  C  C62  1  0.12991154  0.26333130  0.66927758  1
  C  C63  1  0.12904113  0.10061608  0.73782113  1
  C  C64  1  0.48741511  0.01858484  0.68433506  1
  C  C65  1  0.38277363  0.10368583  0.51517179  1
  C  C66  1  0.10021189  0.31896193  0.62531841  1
  C  C67  1  0.19021931  0.33331416  0.68696033  1
  C  C68  1  0.42645911  0.08156731  0.66564717  1
  C  C69  1  0.29009967  0.42962347  0.57633784  1
  N  N70  1  0.28798407  0.46643758  0.61934768  1
  H  H71  1  0.25893316  0.34829622  0.74527855  1
  H  H72  1  0.09999499  0.09712084  0.50421980  1
  N  N73  1  0.19032085  0.00171646  0.52197905  1
  C  C74  1  0.49582530  0.37205835  0.54789344  1
  N  N75  1  0.12763571  0.46001592  0.60492545  1
  H  H76  1  0.05141711  0.07087468  0.68832377  1
  H  H77  1  0.29128442  0.13001574  0.78987239  1
  Zn  Zn78  1  0.07162944  0.13775143  0.95147449  1
  N  N79  1  0.15688617  0.24675293  0.92176170  1
  C  C80  1  0.02980565  0.34521654  0.79328275  1
  C  C81  1  0.33589251  0.20598358  0.80116951  1
  N  N82  1  0.45352188  0.10300421  0.96489376  1
  C  C83  1  0.44528596  0.41166584  0.82592063  1
  C  C84  1  0.16240718  0.34256037  0.88390155  1
  C  C85  1  0.32871876  0.32063462  0.83873250  1
  C  C86  1  0.39672892  0.21868889  0.77974195  1
  H  H87  1  0.22648046  0.11180439  0.96156980  1
  N  N88  1  0.27273858  0.23230601  0.90697684  1
  N  N89  1  0.44893251  0.32135198  0.78846332  1
  C  C90  1  0.09082437  0.33290306  0.81568757  1
  C  C91  1  0.09104502  0.35691580  0.86170433  1
  C  C92  1  0.22060256  0.19618379  0.93094756  1
  H  H93  1  0.13735304  0.30798411  0.79693117  1
  H  H94  1  0.48551898  0.07403993  0.83163502  1
  C  C95  1  0.26679714  0.31452844  0.86912667  1
  N  N96  1  0.20939683  0.39402367  0.85302687  1
  C  C97  1  0.38651339  0.41563823  0.85144247  1
  N  N98  1  0.00209898  0.31820817  0.97669233  1
  C  C99  1  0.49848011  0.13915029  0.99512019  1
  H  H100  1  0.41469102  0.12771002  0.75347093  1
  N  N101  1  0.19095602  0.15478495  0.75210397  1
  H  H102  1  0.42304272  0.02849487  0.88306702  1
  H  H103  1  0.49291807  0.47961290  0.83199485  1
  H  H104  1  0.01695524  0.34297331  0.75809412  1
  C  C105  1  0.03028003  0.41687574  0.87940952  1
  H  H106  1  0.02743450  0.45571874  0.91329541  1
  H  H107  1  0.11291315  0.00915542  0.76377003  1
  H  H108  1  0.45280860  0.47345300  0.97989672  1
  H  H109  1  0.07214528  0.47562217  0.99644131  1
  H  H110  1  0.47937972  0.83894341  0.06374622  1
  C  C111  1  0.15522748  0.71662382  0.18420228  1
  N  N112  1  0.31978289  0.61206131  0.06943846  1
  C  C113  1  0.44959288  0.67144502  0.12777247  1
  H  H114  1  0.40668441  0.73760441  0.14481072  1
  C  C115  1  0.43856615  0.54462203  0.09484660  1
  C  C116  1  0.21848972  0.70246173  0.02740870  1
  H  H117  1  0.13778578  0.68439223  0.14945072  1
  C  C118  1  0.15267649  0.58263828  0.21791603  1
  C  C119  1  0.27022807  0.56966318  0.04337453  1
  C  C120  1  0.21621682  0.88681793  0.03939580  1
  H  H121  1  0.24855515  0.93194553  0.06493512  1
  N  N122  1  0.21490539  0.90680136  0.23243331  1
  N  N123  1  0.42837571  0.85543932  0.00674899  1
  C  C124  1  0.18107235  0.88092690  0.19505551  1
  C  C125  1  0.47519145  0.91267404  0.03314976  1
  H  H126  1  0.18750420  0.98963473  0.16946151  1
  H  H127  1  0.36451976  0.83482466  0.24190100  1
  C  C128  1  0.40192820  0.89100183  0.46264968  1
  C  C129  1  0.38970704  0.75893382  0.33424689  1
  C  C130  1  0.25459337  0.50275781  0.44672192  1
  H  H131  1  0.03330793  0.78295788  0.40851497  1
  C  C132  1  0.25924323  0.55526436  0.40269768  1
  H  H133  1  0.41051795  0.86696088  0.42752823  1
  H  H134  1  0.41953758  0.61057037  0.48301174  1
  H  H135  1  0.20048733  0.50486429  0.27894639  1
  N  N136  1  0.45161133  0.69556486  0.34614889  1
  N  N137  1  0.33105487  0.70046408  0.34666264  1
  C  C138  1  0.00734665  0.88049791  0.32686133  1
  C  C139  1  0.43642082  0.56971353  0.37736777  1
  C  C140  1  0.13690683  0.55049900  0.40349600  1
  C  C141  1  0.32934555  0.58774538  0.38261702  1
  C  C142  1  0.19338068  0.61078847  0.25474946  1
  C  C143  1  0.38792849  0.93389616  0.30646413  1
  N  N144  1  0.07188353  0.87274854  0.34149243  1
  H  H145  1  0.17571547  0.85597433  0.42628881  1
  C  C146  1  0.22081167  0.78062481  0.26217635  1
  C  C147  1  0.19691857  0.57883354  0.38075804  1
  H  H148  1  0.04268698  0.64947102  0.25984649  1
  H  H149  1  0.24812285  0.83168159  0.29271192  1
  C  C150  1  0.01015664  0.86935966  0.43412850  1
  H  H151  1  0.19291577  0.63370311  0.34744666  1
  C  C152  1  0.20152069  0.96216533  0.40746291  1
  C  C153  1  0.40256677  0.74800614  0.49243990  1
  H  H154  1  0.08438808  0.55666891  0.39347867  1
  C  C155  1  0.38279686  0.94346440  0.25992976  1
  N  N156  1  0.38190428  0.50108750  0.39860208  1
  H  H157  1  0.28909585  0.99439407  0.45367910  1
  C  C158  1  0.38668558  0.97392228  0.54803232  1
  C  C159  1  0.36378397  0.62758697  0.56575961  1
  C  C160  1  0.12445249  0.97654554  0.51723783  1
  H  H161  1  0.03312526  0.80364272  0.52595617  1
  C  C162  1  0.23906518  0.77608094  0.73178838  1
  C  C163  1  0.22702273  0.88881484  0.54284646  1
  H  H164  1  0.19412611  0.86496816  0.73842062  1
  H  H165  1  0.22312810  0.64608049  0.58106255  1
  C  C166  1  0.32043824  0.64461742  0.68213891  1
  C  C167  1  0.12711208  0.70251145  0.55536851  1
  N  N168  1  0.38481595  0.65122724  0.60906288  1
  C  C169  1  0.38302954  0.78996872  0.53621577  1
  H  H170  1  0.24336892  0.82261495  0.66052239  1
  C  C171  1  0.08153798  0.66176322  0.69502634  1
  N  N172  1  0.03133492  0.74958626  0.67746652  1
  C  C173  1  0.35096935  0.57446387  0.71970278  1
  C  C174  1  0.19535706  0.74022623  0.56168458  1
  C  C175  1  0.26655435  0.75665891  0.68888756  1
  C  C176  1  0.08844664  0.83035774  0.53240786  1
  C  C177  1  0.33208362  0.58163840  0.63214946  1
  Zn  Zn178  1  0.48692013  0.62110298  0.62477275  1
  H  H179  1  0.27938265  0.92616840  0.54158750  1
  H  H180  1  0.39986258  0.50729927  0.71726074  1
  H  H181  1  0.49984047  0.98074366  0.58985531  1
  C  C182  1  0.10450944  0.50973303  0.56726921  1
  N  N183  1  0.32334895  0.50805658  0.54572426  1
  N  N184  1  0.49626118  0.68659609  0.69699134  1
  C  C185  1  0.49321306  0.84969401  0.71399295  1
  H  H186  1  0.10545704  0.59572173  0.66636282  1
  C  C187  1  0.09730007  0.65656923  0.74068690  1
  H  H188  1  0.30633504  0.73975029  0.97759965  1
  C  C189  1  0.05199209  0.74272749  0.76848582  1
  C  C190  1  0.31841721  0.59076736  0.76077391  1
  C  C191  1  0.38328522  0.92901887  0.89095296  1
  H  H192  1  0.08993346  0.77417107  0.95167430  1
  N  N193  1  0.28073327  0.77057040  0.86723326  1
  H  H194  1  0.15813200  0.92240075  0.88293222  1
  C  C195  1  0.10589348  0.89230440  0.87187274  1
  H  H196  1  0.22700404  0.64659773  0.91211368  1
  H  H197  1  0.34082260  0.52564367  0.79097559  1
  Zn  Zn198  1  0.21529466  0.66962401  0.82065788  1
  N  N199  1  0.26229136  0.68535223  0.76575649  1
  H  H200  1  0.38272856  0.50481786  0.88005822  1
  C  C201  1  0.27195007  0.72923548  0.90907744  1
  C  C202  1  0.31561431  0.77912668  0.94308205  1
  C  C203  1  0.12920795  0.78532102  0.97852631  1
  C  C204  1  0.05449204  0.77569945  0.81897597  1
  N  N205  1  0.11632813  0.78876568  0.83637499  1
  C  C206  1  0.33790613  0.86460642  0.86028273  1
  C  C207  1  0.37291125  0.88789354  0.93703647  1
  N  N208  1  0.05566520  0.96377702  0.89800332  1
  H  H209  1  0.14033915  0.58891350  0.75186774  1
  C  C210  1  0.41682536  0.95826848  0.97199998  1
  H  H211  1  0.33978155  0.88837907  0.82441912  1
  H  H212  1  0.16864245  0.51609660  0.98234835  1
  N  N213  1  0.13088275  0.95790380  0.98794302  1
  C  C214  1  0.17260794  0.65408589  0.99429390  1
  H  H215  1  0.76203668  0.40190411  0.09451043  1
  H  H216  1  0.96333511  0.46740432  0.12824447  1
  C  C217  1  0.63111403  0.15098263  0.14536447  1
  C  C218  1  0.71837724  0.31340122  0.10372276  1
  C  C219  1  0.65417758  0.13120784  0.06593990  1
  C  C220  1  0.66502235  0.35422059  0.24642759  1
  C  C221  1  0.60591786  0.07017104  0.18888389  1
  N  N222  1  0.55286805  0.13779291  0.21198675  1
  H  H223  1  0.78584496  0.05366546  0.13844340  1
  C  C224  1  0.83402764  0.04969498  0.20429616  1
  H  H225  1  0.82857601  0.19210352  0.21372526  1
  C  C226  1  0.68613201  0.26880192  0.14389008  1
  H  H227  1  0.99019823  0.34110041  0.24538261  1
  N  N228  1  0.70443442  0.24797383  0.06545696  1
  H  H229  1  0.69637712  0.34506726  0.17197486  1
  H  H230  1  0.87892237  0.36055585  0.06770069  1
  C  C231  1  0.61823878  0.08618854  0.10366236  1
  C  C232  1  0.90418112  0.27451264  0.09134766  1
  H  H233  1  0.65505730  0.06663499  0.03404287  1
  H  H234  1  0.65787833  0.20715291  0.24367977  1
  N  N235  1  0.51320219  0.05603215  0.03140784  1
  C  C236  1  0.98986057  0.19306111  0.14591485  1
  N  N237  1  0.89218454  0.10598474  0.07769145  1
  C  C238  1  0.95191087  0.32276456  0.12254389  1
  C  C239  1  0.53705676  0.04295111  0.24697029  1
  H  H240  1  0.60941040  0.44900748  0.08982610  1
  C  C241  1  0.97681405  0.02096336  0.12982747  1
  C  C242  1  0.68438387  0.04475925  0.32113463  1
  N  N243  1  0.80499416  0.08167428  0.32267991  1
  N  N244  1  0.92129719  0.36654060  0.29327037  1
  C  C245  1  0.96845898  0.44075416  0.26765998  1
  H  H246  1  0.92900393  0.24029769  0.42483101  1
  C  C247  1  0.90959849  0.37209782  0.42705968  1
  C  C248  1  0.54705959  0.28585398  0.43109760  1
  C  C249  1  0.89284884  0.47612253  0.32266865  1
  C  C250  1  0.74109935  0.10391846  0.39023004  1
  C  C251  1  0.68313837  0.08713652  0.36589131  1
  H  H252  1  0.81777655  0.48440753  0.48305021  1
  C  C253  1  0.60993339  0.12913948  0.38134116  1
  H  H254  1  0.84913708  0.09805607  0.38247562  1
  H  H255  1  0.76001030  0.03766264  0.26593594  1
  N  N256  1  0.60947491  0.24658488  0.41544036  1
  N  N257  1  0.84710988  0.38998278  0.41188827  1
  H  H258  1  0.99960735  0.32399506  0.33227058  1
  C  C259  1  0.74882651  0.05536661  0.30037500  1
  Zn  Zn260  1  0.88716938  0.09493040  0.28886617  1
  C  C261  1  0.53688057  0.38940578  0.47406248  1
  H  H262  1  0.74095166  0.36394365  0.35125708  1
  C  C263  1  0.95674065  0.12143638  0.49098517  1
  N  N264  1  0.55510138  0.05523469  0.35930928  1
  C  C265  1  0.80165742  0.09528647  0.36549184  1
  C  C266  1  0.72379950  0.37766894  0.48844612  1
  H  H267  1  0.84810408  0.40116072  0.33592083  1
  H  H268  1  0.74151095  0.12395474  0.42621428  1
  N  N269  1  0.97706037  0.04351419  0.32292353  1
  N  N270  1  0.95180447  0.49468585  0.44392462  1
  H  H271  1  0.63902023  0.01001253  0.30147391  1
  H  H272  1  0.71253630  0.43369293  0.45701153  1
  C  C273  1  0.71753333  0.48352536  0.36524922  1
  N  N274  1  0.73168693  0.37429183  0.25076211  1
  C  C275  1  0.51067072  0.12799005  0.38252054  1
  H  H276  1  0.86052596  0.37754893  0.54779083  1
  N  N277  1  0.69236009  0.31891531  0.68242842  1
  C  C278  1  0.77682098  0.19232117  0.56352325  1
  C  C279  1  0.70889619  0.16996192  0.54982666  1
  H  H280  1  0.59575728  0.06599642  0.69328902  1
  H  H281  1  0.58110742  0.36604375  0.64849318  1
  C  C282  1  0.54817190  0.11371485  0.67930783  1
  C  C283  1  0.68257260  0.26769743  0.51331237  1
  C  C284  1  0.68912713  0.31068655  0.63899632  1
  H  H285  1  0.66852651  0.45653241  0.57809000  1
  H  H286  1  0.53232617  0.43878016  0.71879883  1
  H  H287  1  0.70171966  0.16974635  0.62905387  1
  C  C288  1  0.54084631  0.27722567  0.65700013  1
  C  C289  1  0.81174565  0.32258589  0.53853316  1
  N  N290  1  0.59217252  0.07501398  0.56751865  1
  H  H291  1  0.79654662  0.13165720  0.59342504  1
  H  H292  1  0.93846960  0.23553676  0.50886655  1
  C  C293  1  0.65912247  0.04552336  0.56999312  1
  H  H294  1  0.69642389  0.45857124  0.74060944  1
  C  C295  1  0.68216081  0.46501812  0.70603914  1
  C  C296  1  0.67116220  0.45957187  0.61520676  1
  H  H297  1  0.62676827  0.25948415  0.50445409  1
  H  H298  1  0.99138491  0.21375483  0.55746556  1
  C  C299  1  0.50891264  0.28448306  0.50767611  1
  N  N300  1  0.78668939  0.39482776  0.50190688  1
  C  C301  1  0.66302311  0.16655488  0.80440477  1
  C  C302  1  0.88717109  0.40353809  0.98589751  1
  C  C303  1  0.61210451  0.31193486  0.97772340  1
  N  N304  1  0.69255210  0.32133692  0.80881515  1
  H  H305  1  0.63883861  0.18419499  0.97375213  1
  C  C306  1  0.79878244  0.19078901  0.78343278  1
  C  C307  1  0.75974061  0.32973938  0.80161912  1
  H  H308  1  0.53800674  0.15154107  0.91030852  1
  C  C309  1  0.93832496  0.29379203  0.96770957  1
  H  H310  1  0.92143540  0.18413518  0.94702711  1
  H  H311  1  0.78078465  0.45435948  0.81274074  1
  C  C312  1  0.50926052  0.47606298  0.97753975  1
  C  C313  1  0.64699772  0.47355580  0.98049325  1
  C  C314  1  0.54216309  0.31129845  0.98301823  1
  N  N315  1  0.97101422  0.35621315  0.81320772  1
  H  H316  1  0.78299475  0.20135615  0.88329634  1
  H  H317  1  0.83332001  0.36132624  0.97836268  1
  H  H318  1  0.85175565  0.20600893  0.78045462  1
  H  H319  1  0.61032399  0.18145629  0.81420460  1
  N  N320  1  0.80312718  0.05355105  0.93187039  1
  C  C321  1  0.82404127  0.11036553  0.89353148  1
  C  C322  1  0.69742293  0.01473920  0.78882813  1
  C  C323  1  0.54928111  0.03692520  0.88920221  1
  C  C324  1  0.76591186  0.02567546  0.77620764  1
  C  C325  1  0.97089376  0.41240703  0.85382512  1
  H  H326  1  0.91906842  0.43777185  0.86441839  1
  H  H327  1  0.89484795  0.10876737  0.84042927  1
  C  C328  1  0.88486216  0.06616151  0.87287423  1
  H  H329  1  0.91441434  0.86175176  0.08102580  1
  C  C330  1  0.61341458  0.85127999  0.23397639  1
  C  C331  1  0.93247278  0.98569346  0.09378371  1
  C  C332  1  0.80791185  0.71280748  0.11229185  1
  C  C333  1  0.87949020  0.78894033  0.22877443  1
  C  C334  1  0.90219623  0.54563315  0.01613318  1
  N  N335  1  0.56928109  0.65107905  0.12345355  1
  C  C336  1  0.86057192  0.69779227  0.18960689  1
  N  N337  1  0.74190494  0.71918283  0.10119903  1
  C  C338  1  0.84684185  0.61309843  0.04418950  1
  N  N339  1  0.78428806  0.61398249  0.02876002  1
  N  N340  1  0.85918795  0.64929903  0.08720172  1
  Zn  Zn341  1  0.65915546  0.72937085  0.13984428  1
  N  N342  1  0.63760341  0.90690114  0.19280528  1
  C  C343  1  0.76027513  0.53377105  0.24688247  1
  H  H344  1  0.68765891  0.67246906  0.04687378  1
  C  C345  1  0.82220050  0.79280646  0.15703602  1
  H  H346  1  0.98832465  0.67544264  0.04467629  1
  C  C347  1  0.97255685  0.57533385  0.02236523  1
  C  C348  1  0.73966609  0.68093867  0.05865797  1
  H  H349  1  0.87705880  0.55721951  0.18848276  1
  H  H350  1  0.52996716  0.83833372  0.16367673  1
  C  C351  1  0.65170677  0.67457500  0.24230951  1
  H  H352  1  0.74909463  0.82339244  0.23800266  1
  C  C353  1  0.62452574  0.50595789  0.24479183  1
  C  C354  1  0.51402039  0.72383491  0.14130705  1
  N  N355  1  0.86466780  0.95904883  0.23718917  1
  C  C356  1  0.72284294  0.69097853  0.24102478  1
  C  C357  1  0.81295663  0.97456081  0.16402149  1
  H  H358  1  0.99943532  0.90866708  0.14638060  1
  H  H359  1  0.57607744  0.98271525  0.10058098  1
  H  H360  1  0.56964109  0.50153204  0.24421709  1
  C  C361  1  0.55970359  0.51258993  0.09705360  1
  C  C362  1  0.65875105  0.55296043  0.34472328  1
  C  C363  1  0.74871555  0.58995142  0.39850494  1
  H  H364  1  0.88890091  0.72329206  0.36057120  1
  C  C365  1  0.95398277  0.82255475  0.45822004  1
  C  C366  1  0.99862412  0.60363413  0.27804334  1
  C  C367  1  0.91487662  0.64141831  0.33428486  1
  C  C368  1  0.81886204  0.55098758  0.41503995  1
  H  H369  1  0.64001752  0.52516569  0.31231118  1
  H  H370  1  0.72402911  0.79563055  0.44433289  1
  N  N371  1  0.85201384  0.68436140  0.43400713  1
  C  C372  1  0.70521481  0.71669183  0.41754703  1
  C  C373  1  0.91672384  0.64677300  0.44428212  1
  H  H374  1  0.60409495  0.84932493  0.40906207  1
  N  N375  1  0.62228544  0.68980097  0.36017257  1
  C  C376  1  0.64120297  0.74646022  0.39976909  1
  Zn  Zn377  1  0.54472516  0.79401361  0.32803540  1
  C  C378  1  0.97281331  0.71476372  0.31214203  1
  N  N379  1  0.56667893  0.89710842  0.26440326  1
  H  H380  1  0.57751524  0.65000440  0.45454655  1
  C  C381  1  0.55585197  0.56831061  0.48132492  1
  C  C382  1  0.92749805  0.94842289  0.48769340  1
  H  H383  1  0.89782810  0.72875145  0.26053625  1
  H  H384  1  0.81339639  0.52342987  0.25414109  1
  C  C385  1  0.91433895  0.61237488  0.63775339  1
  C  C386  1  0.54406250  0.62734045  0.52499372  1
  C  C387  1  0.65435031  0.62137783  0.63548138  1
  C  C388  1  0.83810651  0.69944610  0.70193642  1
  N  N389  1  0.86869607  0.59008449  0.73018772  1
  C  C390  1  0.66065719  0.61657530  0.68123630  1
  N  N391  1  0.51399802  0.54004304  0.55557651  1
  C  C392  1  0.80901351  0.74618738  0.62144941  1
  C  C393  1  0.85100514  0.67813694  0.65325097  1
  C  C394  1  0.63276045  0.78866107  0.61046641  1
  H  H395  1  0.79969659  0.76894624  0.54701054  1
  H  H396  1  0.75823265  0.78940124  0.62910454  1
  H  H397  1  0.55615973  0.75600591  0.53754223  1
  N  N398  1  0.56512451  0.81024959  0.61175856  1
  N  N399  1  0.80403854  0.83902908  0.71650432  1
  C  C400  1  0.55286885  0.96239404  0.58997902  1
  H  H401  1  0.64608655  0.74177231  0.69609610  1
  C  C402  1  0.82887268  0.73646496  0.57732277  1
  C  C403  1  0.51994083  0.58050372  0.72842507  1
  N  N404  1  0.67626317  0.89088673  0.58849697  1
  H  H405  1  0.94161540  0.88261148  0.68820566  1
  N  N406  1  0.88937792  0.68294852  0.56303914  1
  C  C407  1  0.93189038  0.62439322  0.59300445  1
  H  H408  1  0.87894809  0.93282460  0.50355089  1
  H  H409  1  0.98685789  0.59445687  0.58412008  1
  H  H410  1  0.95433768  0.55121810  0.65978858  1
  C  C411  1  0.98712701  0.82683282  0.70419144  1
  C  C412  1  0.92791679  0.94649649  0.89517246  1
  N  N413  1  0.99724038  0.82466983  0.83865524  1
  H  H414  1  0.53339307  0.77190372  0.96577138  1
  N  N415  1  0.50846399  0.90806736  0.75471859  1
  N  N416  1  0.54430966  0.62057911  0.76770066  1
  C  C417  1  0.55345377  0.84458034  0.82785075  1
  C  C418  1  0.54809777  0.62956611  0.97084381  1
  C  C419  1  0.62848711  0.82564794  0.88947667  1
  C  C420  1  0.60512287  0.75268973  0.84966943  1
  H  H421  1  0.66945426  0.77988739  0.90906635  1
  C  C422  1  0.99872914  0.91095008  0.87679440  1
  C  C423  1  0.53331656  0.78370450  0.78303657  1
  H  H424  1  0.88444264  0.55697990  0.79914857  1
  H  H425  1  0.62759228  0.62725812  0.83440395  1
  N  N426  1  0.61449116  0.62838341  0.97518896  1
  H  H427  1  0.95190011  0.85111826  0.77458461  1
  N  N428  1  0.82929033  0.76207479  0.79066755  1
  N  N429  1  0.60228917  0.97610897  0.90901105  1
  H  H430  1  0.67349493  0.88255031  0.78863770  1
  C  C431  1  0.86168089  0.63284486  0.77140735  1
  C  C432  1  0.80065359  0.85465315  0.75955224  1
  C  C433  1  0.52215269  0.99015658  0.84874968  1
  C  C434  1  0.99346001  0.81607596  0.75035571  1
  H  H435  1  0.81651837  0.90395106  0.98147482  1
  H  H436  1  0.70196901  0.50957798  0.98057352  1
  C  C437  1  0.84471009  0.94260380  0.95193227  1
  C  C438  1  0.90229764  0.86645356  0.93437177  1
  H  H439  1  0.92662937  0.75245833  0.95111631  1
