# generated using pymatgen
data_Zn3H24C54(N7O6)2
_symmetry_space_group_name_H-M   'P 1'
_cell_length_a   26.74513552
_cell_length_b   8.47623674
_cell_length_c   34.04224630
_cell_angle_alpha   90.00000000
_cell_angle_beta   90.00000000
_cell_angle_gamma   90.00000000
_symmetry_Int_Tables_number   1
_chemical_formula_structural   Zn3H24C54(N7O6)2
_chemical_formula_sum   'Zn12 H96 C216 N56 O48'
_cell_volume   7717.31256298
_cell_formula_units_Z   4
loop_
 _symmetry_equiv_pos_site_id
 _symmetry_equiv_pos_as_xyz
  1  'x, y, z'
loop_
 _atom_site_type_symbol
 _atom_site_label
 _atom_site_symmetry_multiplicity
 _atom_site_fract_x
 _atom_site_fract_y
 _atom_site_fract_z
 _atom_site_occupancy
  H  H0  1  0.16655281  0.35241237  0.06049921  1
  C  C1  1  0.19458843  0.26638573  0.04792204  1
  C  C2  1  0.23322510  0.21491304  0.07279215  1
  H  H3  1  0.23552438  0.25975157  0.10449147  1
  C  C4  1  0.19446326  0.21798054  0.00734192  1
  C  C5  1  0.31083294  0.05100215  0.08398127  1
  H  H6  1  0.47760527  0.42171434  0.06024481  1
  Zn  Zn7  1  0.35659468  0.30524262  0.14081980  1
  C  C8  1  0.26629398  0.05426761  0.01821812  1
  O  O9  1  0.42887960  0.19169923  0.13908654  1
  H  H10  1  0.43906526  0.15497603  0.04273788  1
  C  C11  1  0.44387740  0.25032025  0.02022985  1
  O  O12  1  0.45322696  0.02969894  0.09409631  1
  O  O13  1  0.30636336  0.44812296  0.17645471  1
  C  C14  1  0.44411452  0.05974951  0.12974068  1
  N  N15  1  0.40546564  0.38517997  0.21062201  1
  H  H16  1  0.42830633  0.05813429  0.21107177  1
  C  C17  1  0.38185314  0.27302333  0.23123480  1
  H  H18  1  0.29008717  0.34534477  0.03154557  1
  O  O19  1  0.31016060  0.11541647  0.11800037  1
  C  C20  1  0.26926516  0.10750134  0.05833026  1
  C  C21  1  0.33774782  0.04466108  0.24215907  1
  N  N22  1  0.35883944  0.14463613  0.21560118  1
  C  C23  1  0.46636878  0.39236680  0.02971529  1
  C  C24  1  0.30605185  0.42960419  0.00978433  1
  O  O25  1  0.34235550  0.44397214  0.08272688  1
  C  C26  1  0.16261222  0.26528190  0.43296162  1
  H  H27  1  0.07953026  0.22390000  0.38090981  1
  N  N28  1  0.15727366  0.26867446  0.47338984  1
  N  N29  1  0.18783765  0.18231670  0.40615968  1
  C  C30  1  0.22001026  0.09228927  0.42427651  1
  N  N31  1  0.22187604  0.08047620  0.46728815  1
  C  C32  1  0.08573351  0.34612052  0.38912147  1
  H  H33  1  0.02247173  0.43504204  0.35555725  1
  C  C34  1  0.12851370  0.38388172  0.41259969  1
  C  C35  1  0.05473745  0.46552787  0.37509342  1
  C  C36  1  0.18890594  0.16321578  0.49299704  1
  C  C37  1  0.01030150  0.17768053  0.43246190  1
  O  O38  1  0.02385835  0.18724655  0.46153059  1
  N  N39  1  0.40074992  0.45757419  0.32751408  1
  C  C40  1  0.40558541  0.43198596  0.28738299  1
  C  C41  1  0.35280150  0.19269060  0.29746849  1
  C  C42  1  0.36861847  0.37172882  0.39398564  1
  N  N43  1  0.33309549  0.06522564  0.28021178  1
  N  N44  1  0.37939740  0.30069857  0.27244134  1
  N  N45  1  0.35179187  0.22825688  0.33536629  1
  H  H46  1  0.30679872  0.20108055  0.39396482  1
  H  H47  1  0.28189469  0.23468576  0.45888132  1
  C  C48  1  0.31382105  0.30815399  0.44932944  1
  C  C49  1  0.37583765  0.35620287  0.35023990  1
  C  C50  1  0.33807581  0.42388760  0.47308649  1
  C  C51  1  0.32637798  0.28664474  0.41023059  1
  N  N52  1  0.25648979  0.00820068  0.40458373  1
  C  C53  1  0.39106569  0.49119917  0.41853209  1
  H  H54  1  0.36794702  0.00854965  0.45097913  1
  N  N55  1  0.18961498  0.16587253  0.53278261  1
  C  C56  1  0.05986585  0.15230774  0.69466476  1
  C  C57  1  0.22785519  0.05163119  0.58750513  1
  C  C58  1  0.22119532  0.04783280  0.54294311  1
  O  O59  1  0.03289692  0.23762205  0.67240201  1
  O  O60  1  0.13672867  0.38001264  0.58844280  1
  H  H61  1  0.14987572  0.09816369  0.60207142  1
  C  C62  1  0.19919473  0.10169307  0.65477807  1
  C  C63  1  0.18783783  0.08219312  0.61433252  1
  C  C64  1  0.07516261  0.19328568  0.73688804  1
  H  H65  1  0.16784000  0.11774244  0.67568186  1
  H  H66  1  0.22563681  0.37653301  0.67202209  1
  O  O67  1  0.07716656  0.03060005  0.68389689  1
  H  H68  1  0.04212401  0.42973556  0.73327307  1
  O  O69  1  0.22625119  0.16777291  0.73256291  1
  Zn  Zn70  1  0.21156865  0.40769742  0.56600427  1
  Zn  Zn71  1  0.11359909  0.41600023  0.50482145  1
  C  C72  1  0.23070885  0.48977115  0.68793525  1
  C  C73  1  0.09856540  0.47117038  0.58650107  1
  O  O74  1  0.07284853  0.47830483  0.55508389  1
  H  H75  1  0.06702982  0.00812370  0.61752437  1
  C  C76  1  0.24824838  0.10430668  0.66585839  1
  H  H77  1  0.14332496  0.49049959  0.65999605  1
  H  H78  1  0.20089436  0.40245376  0.74554784  1
  O  O79  1  0.30549268  0.12966036  0.71890781  1
  H  H80  1  0.30790174  0.06231927  0.58005177  1
  C  C81  1  0.26109489  0.13906512  0.71068315  1
  O  O82  1  0.26041994  0.48322763  0.61029001  1
  O  O83  1  0.28121806  0.36197604  0.52597152  1
  C  C84  1  0.27696568  0.05759372  0.60103468  1
  H  H85  1  0.32583239  0.09917432  0.65159953  1
  C  C86  1  0.28874328  0.09227636  0.64039455  1
  C  C87  1  0.31647174  0.44557645  0.51365683  1
  C  C88  1  0.12830172  0.31580908  0.91582107  1
  N  N89  1  0.16393106  0.25967604  0.94184459  1
  N  N90  1  0.13464081  0.28743606  0.87780799  1
  C  C91  1  0.09362600  0.28433034  0.81526643  1
  C  C92  1  0.11172042  0.14130637  0.80120030  1
  C  C93  1  0.09472912  0.34074163  0.85999662  1
  N  N94  1  0.08564631  0.39636123  0.93420901  1
  C  C95  1  0.06839320  0.38819175  0.78982575  1
  N  N96  1  0.05266123  0.41390604  0.86934696  1
  C  C97  1  0.04611453  0.44702608  0.90787675  1
  C  C98  1  0.08207502  0.41654575  0.97420926  1
  C  C99  1  0.15635695  0.27935135  0.97997638  1
  C  C100  1  0.10260711  0.09610723  0.76105613  1
  H  H101  1  0.12655371  0.05436542  0.82104233  1
  Zn  Zn102  1  0.08287414  0.04227256  0.96402892  1
  N  N103  1  0.03942475  0.48802828  0.98611754  1
  C  C104  1  0.00528545  0.07410952  0.97670049  1
  H  H105  1  0.22859127  0.05703255  0.96234765  1
  C  C106  1  0.04693640  0.02835543  0.90812946  1
  C  C107  1  0.23125013  0.10839640  0.99264553  1
  H  H108  1  0.05079780  0.05981974  0.87499898  1
  N  N109  1  0.11689247  0.34995516  0.99874922  1
  C  C110  1  0.01194520  0.11853291  0.93564927  1
  H  H111  1  0.04887853  0.49482371  0.80082879  1
  H  H112  1  0.24514463  0.36523421  0.97093074  1
  C  C113  1  0.06000002  0.34059084  0.75094859  1
  O  O114  1  0.40056246  0.02374800  0.93712161  1
  C  C115  1  0.45448247  0.48180948  0.96180527  1
  C  C116  1  0.40565886  0.05954654  0.97092622  1
  C  C117  1  0.43664540  0.33708105  0.95184520  1
  C  C118  1  0.43189653  0.22163585  0.98114855  1
  H  H119  1  0.42510844  0.31957001  0.92127371  1
  C  C120  1  0.27830172  0.44183677  0.97609279  1
  C  C121  1  0.36741080  0.52587791  0.05864625  1
  C  C122  1  0.30409939  0.61684438  0.23349022  1
  H  H123  1  0.44327911  0.52431627  0.15240292  1
  H  H124  1  0.28868462  0.95413140  0.00690444  1
  H  H125  1  0.46074273  0.74682365  0.11119263  1
  H  H126  1  0.33508301  0.97172289  0.16459672  1
  C  C127  1  0.45288605  0.77422897  0.14161710  1
  C  C128  1  0.43852528  0.65622592  0.20597729  1
  O  O129  1  0.39961012  0.62079037  0.07095539  1
  C  C130  1  0.34825038  0.52685855  0.01795602  1
  C  C131  1  0.32028802  0.72084235  0.16887246  1
  H  H132  1  0.32333712  0.71668352  0.13691143  1
  C  C133  1  0.30844038  0.58402813  0.19093104  1
  C  C134  1  0.43391438  0.81172160  0.22161416  1
  C  C135  1  0.44646173  0.64367754  0.16488162  1
  C  C136  1  0.32057000  0.89151432  0.22709181  1
  Zn  Zn137  1  0.41420433  0.86615989  0.05316526  1
  C  C138  1  0.43739719  0.93942597  0.19886917  1
  C  C139  1  0.49319873  0.66263884  0.01486034  1
  C  C140  1  0.44642323  0.92433494  0.15797762  1
  C  C141  1  0.32418849  0.86628400  0.18522284  1
  O  O142  1  0.34092128  0.94801114  0.07447347  1
  C  C143  1  0.42572114  0.51324742  0.23003960  1
  C  C144  1  0.46843740  0.51313323  0.00142355  1
  H  H145  1  0.08689769  0.78937695  0.48065807  1
  H  H146  1  0.12120651  0.78139722  0.40657213  1
  C  C147  1  0.10889442  0.65974713  0.40293007  1
  C  C148  1  0.06515454  0.62319092  0.38277966  1
  C  C149  1  0.03311608  0.76320887  0.36427161  1
  C  C150  1  0.14094060  0.54480263  0.41652220  1
  H  H151  1  0.17818044  0.57613600  0.43104534  1
  O  O152  1  0.00138728  0.71847250  0.34249005  1
  O  O153  1  0.04463171  0.89671918  0.37318386  1
  O  O154  1  0.16226312  0.62939242  0.49762632  1
  H  H155  1  0.00941056  0.96415584  0.49791773  1
  H  H156  1  0.30720026  0.72651272  0.35672869  1
  C  C157  1  0.38554598  0.78695591  0.35085850  1
  C  C158  1  0.28421248  0.90844452  0.42447718  1
  C  C159  1  0.37633879  0.94026440  0.42313677  1
  H  H160  1  0.30784712  0.77838836  0.28332164  1
  C  C161  1  0.47516259  0.86478435  0.34938429  1
  O  O162  1  0.47779300  0.82935457  0.31424908  1
  C  C163  1  0.25667971  0.96911303  0.48197027  1
  H  H164  1  0.39351140  0.61884949  0.47591993  1
  N  N165  1  0.43530455  0.54034414  0.26856104  1
  C  C166  1  0.34050910  0.78943005  0.36900805  1
  C  C167  1  0.37569462  0.52120655  0.45776527  1
  C  C168  1  0.42544863  0.86714912  0.36956786  1
  H  H169  1  0.45770437  0.99409672  0.41947895  1
  C  C170  1  0.33546728  0.87157432  0.40496719  1
  H  H171  1  0.41765641  0.56944460  0.40469806  1
  N  N172  1  0.28953977  0.87501832  0.46464032  1
  C  C173  1  0.42389772  0.93717425  0.40681407  1
  H  H174  1  0.42211463  0.82321271  0.25294400  1
  H  H175  1  0.39643145  0.72728998  0.32374148  1
  C  C176  1  0.30803932  0.76011044  0.25173017  1
  H  H177  1  0.29942744  0.51554835  0.25305061  1
  O  O178  1  0.19387182  0.67241158  0.55580030  1
  C  C179  1  0.03979359  0.65791329  0.61689695  1
  H  H180  1  0.10240232  0.59810199  0.72125952  1
  C  C181  1  0.03494032  0.67312899  0.68921225  1
  C  C182  1  0.08484821  0.60946905  0.69177554  1
  C  C183  1  0.11635127  0.80137013  0.54045928  1
  C  C184  1  0.15971968  0.69292570  0.53060653  1
  H  H185  1  0.13929626  0.83141814  0.60213453  1
  C  C186  1  0.11067737  0.85291269  0.57965289  1
  C  C187  1  0.10660861  0.55299457  0.65804546  1
  C  C188  1  0.08207843  0.55556285  0.62136881  1
  H  H189  1  0.02543737  0.68706712  0.58746852  1
  C  C190  1  0.08133699  0.83128909  0.51029778  1
  C  C191  1  0.01602112  0.71018825  0.65054440  1
  C  C192  1  0.00246012  0.68767757  0.72493281  1
  C  C193  1  0.06988633  0.94666429  0.58800569  1
  C  C194  1  0.03266663  0.97679268  0.55776689  1
  C  C195  1  0.03802853  0.92037501  0.51911132  1
  N  N196  1  0.00993647  0.80603911  0.74828450  1
  C  C197  1  0.21242686  0.50241968  0.72694677  1
  C  C198  1  0.24505491  0.78207607  0.72888512  1
  C  C199  1  0.22293289  0.64700687  0.74606085  1
  H  H200  1  0.11716715  0.98899306  0.74822340  1
  H  H201  1  0.24372062  0.89412678  0.74607482  1
  C  C202  1  0.41943051  0.94157676  0.50384766  1
  O  O203  1  0.29400107  0.71835250  0.61061422  1
  O  O204  1  0.44309353  0.84134251  0.50637475  1
  C  C205  1  0.25604597  0.61872725  0.67064722  1
  C  C206  1  0.26409620  0.76426016  0.69109216  1
  C  C207  1  0.27007178  0.60963371  0.62839519  1
  N  N208  1  0.25142773  0.94300741  0.52378935  1
  Zn  Zn209  1  0.28673923  0.73934905  0.54810962  1
  H  H210  1  0.28681296  0.86110478  0.67694528  1
  O  O211  1  0.33189555  0.55829399  0.53504502  1
  N  N212  1  0.19098219  0.68573709  0.86429994  1
  C  C213  1  0.15138942  0.73413424  0.83947206  1
  C  C214  1  0.18340572  0.70885705  0.90584580  1
  N  N215  1  0.14363669  0.76908482  0.92499411  1
  C  C216  1  0.11041939  0.80775576  0.89766714  1
  N  N217  1  0.11079484  0.79635842  0.85731556  1
  N  N218  1  0.16543145  0.71925405  0.80175201  1
  C  C219  1  0.20959263  0.66267675  0.79008590  1
  N  N220  1  0.22403865  0.67173001  0.92921534  1
  C  C221  1  0.23765984  0.62305926  0.84827032  1
  C  C222  1  0.06807310  0.87858326  0.92181356  1
  C  C223  1  0.05386529  0.81574106  0.96001894  1
  H  H224  1  0.06686178  0.70129844  0.97041618  1
  C  C225  1  0.02010558  0.91740364  0.98899633  1
  C  C226  1  0.00542817  0.53222911  0.95846630  1
  N  N227  1  0.00263170  0.51559691  0.92026673  1
  N  N228  1  0.24823943  0.61131032  0.81076743  1
  H  H229  1  0.46028190  0.57557420  0.93949483  1
  N  N230  1  0.27115509  0.57549070  0.87630317  1
  C  C231  1  0.26249685  0.59951676  0.91306842  1
  O  O232  1  0.39111901  0.96468296  0.99739423  1
  C  C233  1  0.34442357  0.62766600  0.95202532  1
  C  C234  1  0.29723036  0.54742620  0.94744033  1
  H  H235  1  0.35908177  0.69048259  0.92607811  1
  H  H236  1  0.40412782  0.69612743  0.99267585  1
  C  C237  1  0.36971584  0.62187483  0.98761596  1
  Zn  Zn238  1  0.65556555  0.14117806  0.10468550  1
  H  H239  1  0.73720364  0.22548082  0.18269196  1
  C  C240  1  0.64332361  0.32723607  0.20789158  1
  N  N241  1  0.60413324  0.13454201  0.03060760  1
  C  C242  1  0.59115699  0.35313327  0.20490818  1
  N  N243  1  0.65908002  0.35525294  0.13671344  1
  H  H244  1  0.57532435  0.38584201  0.17529402  1
  H  H245  1  0.59365009  0.13355194  0.16459057  1
  C  C246  1  0.67553890  0.39474613  0.17282155  1
  C  C247  1  0.55778919  0.34906324  0.23614737  1
  H  H248  1  0.51576708  0.35586521  0.23547656  1
  H  H249  1  0.60078244  0.10828944  0.23604686  1
  H  H250  1  0.70812748  0.28065485  0.24380825  1
  C  C251  1  0.66637597  0.28557356  0.24353397  1
  C  C252  1  0.66556921  0.48510926  0.11441062  1
  C  C253  1  0.58162975  0.02408931  0.05283673  1
  N  N254  1  0.64738344  0.48365582  0.07621903  1
  H  H255  1  0.57379039  0.42523847  0.02928139  1
  H  H256  1  0.67861684  0.28694273  0.00837450  1
  N  N257  1  0.59092649  0.02660509  0.09447263  1
  C  C258  1  0.59474387  0.00160978  0.22036882  1
  C  C259  1  0.59113160  0.01685580  0.18031634  1
  C  C260  1  0.59168954  0.48862818  0.00320528  1
  C  C261  1  0.76257477  0.18737487  0.15896338  1
  C  C262  1  0.76705082  0.02907864  0.14586757  1
  H  H263  1  0.78835662  0.42805776  0.14674420  1
  C  C264  1  0.83955700  0.40611207  0.08204086  1
  C  C265  1  0.82265437  0.10506477  0.09285943  1
  C  C266  1  0.81568071  0.26291798  0.10369561  1
  C  C267  1  0.78926428  0.30136991  0.13739477  1
  H  H268  1  0.84659894  0.07419726  0.06843850  1
  O  O269  1  0.95594171  0.11979158  0.03626912  1
  O  O270  1  0.87180611  0.36413880  0.05742697  1
  H  H271  1  0.94958993  0.48966961  0.02615803  1
  C  C272  1  0.96070533  0.13543279  0.00092403  1
  Zn  Zn273  1  0.86022044  0.25346456  0.00281276  1
  O  O274  1  0.56875750  0.25417894  0.34180819  1
  C  C275  1  0.55000075  0.30113883  0.30948766  1
  H  H276  1  0.64753518  0.25291535  0.30465807  1
  C  C277  1  0.58108155  0.31239162  0.27190116  1
  C  C278  1  0.63324163  0.28332614  0.27584394  1
  C  C279  1  0.68948956  0.13080468  0.48135724  1
  O  O280  1  0.61619131  0.10281509  0.42345344  1
  C  C281  1  0.69511781  0.03230477  0.44701864  1
  O  O282  1  0.50722529  0.35459456  0.30832545  1
  H  H283  1  0.65567959  0.19876272  0.48588263  1
  C  C284  1  0.65291767  0.01963576  0.41840009  1
  Zn  Zn285  1  0.58201287  0.00613275  0.36016797  1
  H  H286  1  0.71955196  0.21333756  0.53786735  1
  C  C287  1  0.72767711  0.14915212  0.50992624  1
  C  C288  1  0.88380300  0.43300178  0.61513574  1
  N  N289  1  0.81296663  0.22862364  0.55013362  1
  C  C290  1  0.90220393  0.08185735  0.54221571  1
  Zn  Zn291  1  0.96284856  0.35821031  0.68515647  1
  O  O292  1  0.90341758  0.04361268  0.73232069  1
  N  N293  1  0.94774159  0.00671270  0.53933430  1
  N  N294  1  0.92897539  0.36425821  0.62094951  1
  N  N295  1  0.86223214  0.03545637  0.52041596  1
  C  C296  1  0.98277608  0.05981377  0.56595283  1
  N  N297  1  0.98186128  0.16037750  0.59632806  1
  N  N298  1  0.89973261  0.21077187  0.56801468  1
  C  C299  1  0.94013525  0.23979203  0.59427734  1
  O  O300  1  0.90569280  0.17754010  0.67754128  1
  C  C301  1  0.89860211  0.05292024  0.69747482  1
  C  C302  1  0.82024429  0.11138941  0.52623920  1
  C  C303  1  0.85131336  0.29030569  0.57107251  1
  N  N304  1  0.84428657  0.41779176  0.59434644  1
  C  C305  1  0.77486227  0.06901474  0.50294521  1
  C  C306  1  0.64824405  0.25415968  0.89644728  1
  H  H307  1  0.63736304  0.26019460  0.86584386  1
  C  C308  1  0.68847143  0.34266452  0.90991954  1
  C  C309  1  0.70047480  0.35805161  0.94952314  1
  C  C310  1  0.61967528  0.17257577  0.92371829  1
  C  C311  1  0.62970706  0.18667409  0.96443984  1
  C  C312  1  0.67013964  0.27641017  0.97641209  1
  H  H313  1  0.73264013  0.43029949  0.95769458  1
  C  C314  1  0.71071659  0.45127866  0.87939467  1
  H  H315  1  0.71416747  0.23040367  0.80654172  1
  C  C316  1  0.59490626  0.09797983  0.99340135  1
  H  H317  1  0.58700245  0.09507958  0.91441109  1
  H  H318  1  0.54186102  0.39288416  0.95975364  1
  O  O319  1  0.69291257  0.46189108  0.84713588  1
  C  C320  1  0.57513207  0.46774290  0.96587436  1
  C  C321  1  0.77570443  0.07152314  0.80921356  1
  C  C322  1  0.82809323  0.05058927  0.80678982  1
  C  C323  1  0.75369040  0.21605531  0.80248412  1
  C  C324  1  0.85439034  0.18671025  0.79693875  1
  C  C325  1  0.78084519  0.35368152  0.79337174  1
  C  C326  1  0.83289500  0.33664095  0.79113866  1
  H  H327  1  0.98121671  0.24192474  0.83930899  1
  O  O328  1  0.93290344  0.22031848  0.97892197  1
  N  N329  1  0.89945925  0.44688243  0.75580263  1
  O  O330  1  0.82443646  0.03521770  0.99216170  1
  O  O331  1  0.82659165  0.38706268  0.94776143  1
  C  C332  1  0.89677807  0.02325819  0.89129747  1
  H  H333  1  0.98753282  0.21726410  0.92288374  1
  C  C334  1  0.85238428  0.42946590  0.91955607  1
  H  H335  1  0.89445400  0.18471598  0.79667012  1
  H  H336  1  0.92755434  0.46243545  0.86451266  1
  H  H337  1  0.83745878  0.10926398  0.93076269  1
  C  C338  1  0.86932498  0.14274466  0.91006020  1
  C  C339  1  0.93168059  0.05784675  0.86179829  1
  H  H340  1  0.76505621  0.47067924  0.78832249  1
  C  C341  1  0.92109339  0.33738996  0.87382658  1
  C  C342  1  0.94751939  0.21854709  0.85609808  1
  C  C343  1  0.88065275  0.30194577  0.90004510  1
  C  C344  1  0.87020558  0.47334587  0.78541202  1
  C  C345  1  0.68161868  0.76904095  0.09963139  1
  C  C346  1  0.70447990  0.65538760  0.16371667  1
  N  N347  1  0.68249916  0.63940218  0.12583074  1
  C  C348  1  0.65111632  0.62191620  0.05403596  1
  N  N349  1  0.66403008  0.77069752  0.06315182  1
  N  N350  1  0.73109568  0.78410540  0.17551397  1
  N  N351  1  0.54442200  0.77770311  0.10620235  1
  C  C352  1  0.53221334  0.78794282  0.06741677  1
  C  C353  1  0.58126627  0.87664437  0.15937076  1
  C  C354  1  0.58574244  0.71224767  0.21587681  1
  C  C355  1  0.57934191  0.72112244  0.17571817  1
  H  H356  1  0.57820036  0.61826276  0.15553784  1
  C  C357  1  0.59097977  0.84930682  0.23795237  1
  H  H358  1  0.58427068  0.59264070  0.22999624  1
  N  N359  1  0.54726412  0.90707936  0.03980403  1
  C  C360  1  0.57201544  0.89665698  0.11532022  1
  C  C361  1  0.72634274  0.89182688  0.14927693  1
  N  N362  1  0.69943504  0.91436240  0.11530645  1
  N  N363  1  0.50340944  0.66728253  0.05359736  1
  N  N364  1  0.70302064  0.52305950  0.18569369  1
  C  C365  1  0.63088795  0.59762182  0.01183667  1
  C  C366  1  0.93480798  0.58932785  0.00798645  1
  O  O367  1  0.79728672  0.82356814  0.01929481  1
  C  C368  1  0.80042513  0.98332021  0.11580543  1
  C  C369  1  0.82917447  0.89295928  0.00112302  1
  H  H370  1  0.80249532  0.85566236  0.10840287  1
  O  O371  1  0.82702379  0.54129895  0.08760162  1
  H  H372  1  0.86771159  0.62800003  0.04431999  1
  C  C373  1  0.88992390  0.66933910  0.01909080  1
  H  H374  1  0.99203956  0.84788301  0.00758016  1
  C  C375  1  0.59225756  0.82383606  0.28132309  1
  O  O376  1  0.57823888  0.69103807  0.29505843  1
  O  O377  1  0.60855665  0.92781034  0.30268696  1
  O  O378  1  0.65594752  0.93243813  0.38855849  1
  Zn  Zn379  1  0.50671686  0.60167769  0.29321312  1
  O  O380  1  0.51251881  0.89037870  0.37040567  1
  C  C381  1  0.74373796  0.97004353  0.44005033  1
  H  H382  1  0.74757030  0.90788422  0.41148656  1
  C  C383  1  0.78236949  0.98971832  0.46659682  1
  H  H384  1  0.81798239  0.94751666  0.45778343  1
  C  C385  1  0.87203861  0.61122242  0.67775802  1
  H  H386  1  0.87772393  0.76415586  0.72919631  1
  C  C387  1  0.89999054  0.88701272  0.63388155  1
  C  C388  1  0.88081150  0.60067480  0.63684243  1
  C  C389  1  0.89398976  0.73489481  0.61581049  1
  H  H390  1  0.98048889  0.76790126  0.64798343  1
  C  C391  1  0.88099455  0.75694880  0.69650027  1
  H  H392  1  0.90571048  0.73195094  0.58488714  1
  N  N393  1  0.96603582  0.56269181  0.72285307  1
  C  C394  1  0.89502123  0.89259170  0.67396953  1
  H  H395  1  0.91382654  0.99141448  0.61844865  1
  H  H396  1  0.86778415  0.50273938  0.69368118  1
  C  C397  1  0.65035656  0.68601341  0.98137620  1
  H  H398  1  0.65305153  0.73264343  0.92042714  1
  C  C399  1  0.63489190  0.66916987  0.94360340  1
  C  C400  1  0.59493677  0.55912924  0.93328855  1
  O  O401  1  0.70293886  0.94157900  0.83070275  1
  O  O402  1  0.57887532  0.55501141  0.90031013  1
  C  C403  1  0.54062978  0.89116649  0.99873328  1
  H  H404  1  0.67591335  0.78400751  0.98807952  1
  N  N405  1  0.50864066  0.77088098  0.98918299  1
  C  C406  1  0.74628552  0.92564762  0.82167608  1
  O  O407  1  0.74709007  0.54600994  0.89053359  1
  N  N408  1  0.56192861  0.99951927  0.97581749  1
  C  C409  1  0.94200210  0.91635074  0.83441004  1
  C  C410  1  0.93285552  0.56285547  0.75535232  1
  H  H411  1  0.84713346  0.94387349  0.81506733  1
  N  N412  1  0.97498937  0.92826038  0.80429444  1
  N  N413  1  0.93919579  0.68894761  0.78224944  1
  O  O414  1  0.76742640  0.79223188  0.81835692  1
  C  C415  1  0.97607687  0.81190954  0.77616846  1
  N  N416  1  0.90523842  0.81285178  0.84228640  1
  Zn  Zn417  1  0.80390020  0.62853508  0.85792226  1
  H  H418  1  0.89670330  0.95886024  0.94961068  1
  H  H419  1  0.88475344  0.90551078  0.89451111  1
  C  C420  1  0.90807779  0.70083187  0.81548865  1
  C  C421  1  0.95933479  0.63333876  0.97292289  1
  N  N422  1  0.86897040  0.58862077  0.81479358  1
  O  O423  1  0.85538607  0.56320419  0.90510605  1
  C  C424  1  0.90565489  0.85547716  0.96311440  1
  H  H425  1  0.96970041  0.79985167  0.92479197  1
  C  C426  1  0.94734190  0.77052621  0.95107973  1
  C  C427  1  0.87709325  0.79342208  0.99372394  1
