# generated using pymatgen
data_Zn4H24C36O13
_symmetry_space_group_name_H-M   'P 1'
_cell_length_a   24.08564565
_cell_length_b   11.74626427
_cell_length_c   26.27233732
_cell_angle_alpha   90.00000000
_cell_angle_beta   90.00000000
_cell_angle_gamma   90.00000000
_symmetry_Int_Tables_number   1
_chemical_formula_structural   Zn4H24C36O13
_chemical_formula_sum   'Zn32 H192 C288 O104'
_cell_volume   7432.87401478
_cell_formula_units_Z   8
loop_
 _symmetry_equiv_pos_site_id
 _symmetry_equiv_pos_as_xyz
  1  'x, y, z'
loop_
 _atom_site_type_symbol
 _atom_site_label
 _atom_site_symmetry_multiplicity
 _atom_site_fract_x
 _atom_site_fract_y
 _atom_site_fract_z
 _atom_site_occupancy
  C  C0  1  0.14223391  0.12489291  0.13036545  1
  C  C1  1  0.16669006  0.23133610  0.12865189  1
  C  C2  1  0.15777766  0.31826912  0.16896490  1
  C  C3  1  0.10814974  0.11143205  0.17302382  1
  C  C4  1  0.36882784  0.34041904  0.10795195  1
  C  C5  1  0.04073246  0.28746906  0.03665526  1
  H  H6  1  0.17666815  0.32066700  0.05828674  1
  O  O7  1  0.07932420  0.33194588  0.05382643  1
  C  C8  1  0.19910330  0.31503776  0.09505418  1
  H  H9  1  0.38567664  0.49939901  0.06341811  1
  H  H10  1  0.22173378  0.45109592  0.15850912  1
  C  C11  1  0.18515030  0.41342648  0.13949487  1
  O  O12  1  0.39947445  0.03476620  0.00833105  1
  H  H13  1  0.02346770  0.23036138  0.10705471  1
  H  H14  1  0.22396276  0.16489540  0.18515691  1
  H  H15  1  0.24587846  0.29905475  0.09238197  1
  C  C16  1  0.12534095  0.30625437  0.21338144  1
  C  C17  1  0.15400772  0.03910707  0.08603218  1
  C  C18  1  0.28108576  0.03876516  0.14901491  1
  C  C19  1  0.40699529  0.42592439  0.07922528  1
  C  C20  1  0.38138635  0.24785900  0.07372678  1
  C  C21  1  0.26949648  0.13688933  0.18757467  1
  C  C22  1  0.42091478  0.32136835  0.04084704  1
  C  C23  1  0.09986072  0.19404599  0.21112925  1
  C  C24  1  0.43871659  0.20889824  0.18680698  1
  C  C25  1  0.31241885  0.41562267  0.18426905  1
  H  H26  1  0.41649657  0.15355143  0.15851213  1
  C  C27  1  0.07300384  0.01805776  0.19829947  1
  H  H28  1  0.28078714  0.12577083  0.22837497  1
  H  H29  1  0.37226730  0.26385823  0.21963070  1
  C  C30  1  0.35570465  0.14067518  0.07844256  1
  C  C31  1  0.30800397  0.21609989  0.15357627  1
  O  O32  1  0.40286141  0.21875602  0.23516915  1
  O  O33  1  0.19315334  0.06943936  0.05359468  1
  H  H34  1  0.46216739  0.29388034  0.03815936  1
  H  H35  1  0.43267023  0.30492417  0.17473779  1
  C  C36  1  0.33049822  0.32627542  0.14765598  1
  C  C37  1  0.32064107  0.12575796  0.11958262  1
  C  C38  1  0.36405348  0.04036014  0.04041493  1
  H  H39  1  0.44071067  0.45792579  0.10200302  1
  O  O40  1  0.27847171  0.38694851  0.21750456  1
  C  C41  1  0.06174628  0.11184878  0.24246895  1
  C  C42  1  0.49872033  0.17548757  0.18688076  1
  O  O43  1  0.00098205  0.16871088  0.12597024  1
  O  O44  1  0.49276484  0.43893882  0.19340994  1
  H  H45  1  0.15484275  0.48474808  0.13082647  1
  H  H46  1  0.24356073  0.01081624  0.12731456  1
  H  H47  1  0.01916246  0.14778467  0.24494980  1
  H  H48  1  0.40433225  0.33439898  0.00138924  1
  C  C49  1  0.16709607  0.21146263  0.39853820  1
  C  C50  1  0.12643394  0.15398631  0.42668767  1
  C  C51  1  0.20166336  0.29786220  0.41896514  1
  H  H52  1  0.39743290  0.06815244  0.26273335  1
  H  H53  1  0.14741341  0.18038259  0.31511079  1
  C  C54  1  0.15820207  0.13806730  0.34949252  1
  C  C55  1  0.10770789  0.07887433  0.38012270  1
  O  O56  1  0.09240921  0.37302323  0.29338189  1
  H  H57  1  0.06557582  0.10271014  0.36870182  1
  C  C58  1  0.11288964  0.17584361  0.47847428  1
  H  H59  1  0.19286412  0.07626961  0.33873276  1
  C  C60  1  0.41393026  0.46103280  0.42304797  1
  C  C61  1  0.05082245  0.49286806  0.49680523  1
  H  H62  1  0.00902999  0.12821330  0.43195373  1
  H  H63  1  0.07727844  0.08769753  0.28070257  1
  O  O64  1  0.38648216  0.06434736  0.43255330  1
  H  H65  1  0.46603144  0.18442187  0.36392731  1
  C  C66  1  0.24663151  0.35751481  0.38628719  1
  O  O67  1  0.25110267  0.33534048  0.34140878  1
  H  H68  1  0.07195382  0.40643750  0.49881681  1
  O  O69  1  0.28239787  0.42215354  0.40537012  1
  Zn  Zn70  1  0.23969290  0.47601174  0.27988226  1
  C  C71  1  0.18632634  0.32456293  0.46921346  1
  C  C72  1  0.39787517  0.01303633  0.29854382  1
  H  H73  1  0.37864005  0.05276389  0.33258445  1
  H  H74  1  0.43920036  0.17580993  0.45527109  1
  O  O75  1  0.45727987  0.35336768  0.41174331  1
  C  C76  1  0.41268219  0.10341933  0.46744962  1
  H  H77  1  0.40175691  0.44559656  0.46214500  1
  C  C78  1  0.12201835  0.39204205  0.25510405  1
  C  C79  1  0.14531361  0.26523511  0.49785442  1
  H  H80  1  0.01841820  0.48376976  0.46651938  1
  O  O81  1  0.15395097  0.47436420  0.25544333  1
  H  H82  1  0.37580630  0.45843711  0.39910050  1
  O  O83  1  0.05268561  0.39984724  0.67007475  1
  Zn  Zn84  1  0.08722047  0.24451579  0.70608232  1
  H  H85  1  0.05078054  0.43476020  0.70682704  1
  O  O86  1  0.04991384  0.18352158  0.55239756  1
  C  C87  1  0.20246326  0.40135698  0.51592970  1
  H  H88  1  0.18373059  0.26067983  0.57567748  1
  H  H89  1  0.12891104  0.37180484  0.57098767  1
  C  C90  1  0.16181033  0.32109345  0.54911275  1
  O  O91  1  0.12275750  0.13512573  0.65453089  1
  H  H92  1  0.24509574  0.39899607  0.52975737  1
  O  O93  1  0.01803902  0.17027576  0.74498372  1
  C  C94  1  0.49017206  0.07434842  0.53254871  1
  O  O95  1  0.38744056  0.38169116  0.54528582  1
  O  O96  1  0.20025324  0.12609712  0.61213371  1
  C  C97  1  0.16970277  0.08963132  0.64449166  1
  H  H98  1  0.46728240  0.03308567  0.69552184  1
  O  O99  1  0.38723949  0.24540016  0.60991767  1
  H  H100  1  0.40013533  0.13604362  0.71351942  1
  C  C101  1  0.43053550  0.05799958  0.52122187  1
  H  H102  1  0.19790072  0.24958970  0.71570686  1
  C  C103  1  0.23272254  0.39615512  0.66629384  1
  C  C104  1  0.28366245  0.35060617  0.64596741  1
  C  C105  1  0.28694315  0.25691721  0.68779200  1
  H  H106  1  0.32443777  0.27226311  0.71180106  1
  C  C107  1  0.23214078  0.30778567  0.71187175  1
  C  C108  1  0.06753600  0.12493394  0.51374892  1
  Zn  Zn109  1  0.34300170  0.08390182  0.52447110  1
  H  H110  1  0.19978823  0.08981196  0.73724757  1
  H  H111  1  0.28493774  0.17120397  0.67315513  1
  C  C112  1  0.31595468  0.39124494  0.60562381  1
  C  C113  1  0.36749710  0.32492530  0.58976358  1
  C  C114  1  0.20514446  0.49276036  0.65011139  1
  C  C115  1  0.30603171  0.49113319  0.57769774  1
  C  C116  1  0.35018732  0.47360648  0.53552910  1
  H  H117  1  0.44761557  0.35538070  0.72985623  1
  H  H118  1  0.23626278  0.35777106  0.74963807  1
  C  C119  1  0.39879278  0.07587868  0.74858942  1
  H  H120  1  0.32695936  0.44819584  0.50192888  1
  O  O121  1  0.05024261  0.02868342  0.50592186  1
  H  H122  1  0.18651770  0.49341466  0.51433638  1
  C  C123  1  0.12473113  0.14163457  0.89436371  1
  C  C124  1  0.08015992  0.15313281  0.93702128  1
  H  H125  1  0.08411674  0.23018135  0.96321228  1
  H  H126  1  0.03539003  0.14487841  0.92250950  1
  C  C127  1  0.14036276  0.18536366  0.84618562  1
  C  C128  1  0.49546529  0.14265351  0.79023070  1
  C  C129  1  0.11817197  0.29055830  0.81772289  1
  O  O130  1  0.08840947  0.36170272  0.83534437  1
  C  C131  1  0.03409842  0.04296960  0.84450290  1
  O  O132  1  0.13331564  0.30271093  0.77271945  1
  C  C133  1  0.48314601  0.26850136  0.78014165  1
  C  C134  1  0.45677626  0.06111893  0.77432644  1
  H  H135  1  0.37103859  0.12661456  0.77217672  1
  H  H136  1  0.30411117  0.10653581  0.98813478  1
  H  H137  1  0.01985623  0.12720230  0.85743270  1
  H  H138  1  0.25279262  0.16543900  0.77272455  1
  O  O139  1  0.27783838  0.13035896  0.96207319  1
  Zn  Zn140  1  0.00971254  0.35594160  0.89289278  1
  C  C141  1  0.18051381  0.11428929  0.82292408  1
  H  H142  1  0.07882742  0.04061460  0.83195347  1
  O  O143  1  0.43212930  0.30117971  0.75400066  1
  H  H144  1  0.24078335  0.13457318  0.98093120  1
  C  C145  1  0.21978017  0.09863293  0.77373378  1
  H  H146  1  0.08262634  0.01905676  0.75418544  1
  H  H147  1  0.48676966  0.32412695  0.81566702  1
  C  C148  1  0.14833863  0.04051886  0.91683225  1
  C  C149  1  0.10690669  0.04004761  0.96198851  1
  C  C150  1  0.20070569  0.01703786  0.84611414  1
  H  H151  1  0.12820091  0.04322185  0.99980582  1
  H  H152  1  0.09730830  0.81045561  0.13618092  1
  C  C153  1  0.15474728  0.68600044  0.10805936  1
  C  C154  1  0.13875805  0.64794034  0.06062242  1
  O  O155  1  0.19685980  0.77191610  0.20432009  1
  C  C156  1  0.21291670  0.70706564  0.11943973  1
  C  C157  1  0.10405166  0.71655324  0.14255797  1
  H  H158  1  0.04084873  0.57231763  0.14481433  1
  C  C159  1  0.05015207  0.65331858  0.12528942  1
  C  C160  1  0.23151092  0.75493497  0.16981363  1
  C  C161  1  0.23036842  0.62305194  0.03072005  1
  C  C162  1  0.24519577  0.66920753  0.07996401  1
  Zn  Zn163  1  0.05915480  0.62200657  0.04604865  1
  C  C164  1  0.17332900  0.62266660  0.01824437  1
  H  H165  1  0.09669997  0.93730079  0.20936472  1
  H  H166  1  0.32083914  0.56467790  0.09651394  1
  H  H167  1  0.43577947  0.99250706  0.19659449  1
  O  O168  1  0.33619595  0.51033975  0.18587113  1
  H  H169  1  0.11381763  0.70348483  0.18502971  1
  O  O170  1  0.28164984  0.76701903  0.17896196  1
  O  O171  1  0.12772790  0.95185861  0.07821045  1
  C  C172  1  0.29262686  0.60073079  0.01687991  1
  H  H173  1  0.30320652  0.96051378  0.16036860  1
  O  O174  1  0.33102323  0.95724225  0.04297250  1
  C  C175  1  0.30862109  0.63868861  0.07313784  1
  Zn  Zn176  1  0.24994640  0.97073165  0.01500929  1
  H  H177  1  0.33870945  0.71066112  0.07900275  1
  H  H178  1  0.48998850  0.88217282  0.18131334  1
  H  H179  1  0.30151326  0.51478631  0.00297919  1
  H  H180  1  0.01313267  0.71201750  0.12858093  1
  O  O181  1  0.42662854  0.67762740  0.04729798  1
  Zn  Zn182  1  0.31840967  0.64739074  0.23902216  1
  C  C183  1  0.47766306  0.97360208  0.18098140  1
  C  C184  1  0.45735936  0.64798022  0.01624323  1
  H  H185  1  0.03898349  0.99821508  0.17014357  1
  H  H186  1  0.10961002  0.98684115  0.38471408  1
  O  O187  1  0.20886961  0.66000954  0.41395048  1
  H  H188  1  0.21200231  0.87914564  0.45650612  1
  C  C189  1  0.13831376  0.64677360  0.47666887  1
  Zn  Zn190  1  0.08375565  0.78746333  0.40772232  1
  O  O191  1  0.36521597  0.89763190  0.28352320  1
  C  C192  1  0.11079636  0.79211121  0.32836470  1
  Zn  Zn193  1  0.21022996  0.75338106  0.28723175  1
  C  C194  1  0.16757660  0.60216720  0.42978596  1
  O  O195  1  0.15271489  0.85315467  0.32221502  1
  O  O196  1  0.11946043  0.68857532  0.31266077  1
  C  C197  1  0.04632685  0.83750177  0.33841915  1
  Zn  Zn198  1  0.42785271  0.87522424  0.42461920  1
  C  C199  1  0.37594430  0.71765758  0.43556479  1
  C  C200  1  0.45664541  0.98737724  0.30780103  1
  C  C201  1  0.08947730  0.59833851  0.49757961  1
  O  O202  1  0.26382093  0.63306169  0.30049666  1
  C  C203  1  0.44951369  0.56633457  0.41598707  1
  C  C204  1  0.40592728  0.81925716  0.27797938  1
  Zn  Zn205  1  0.10305948  0.51718545  0.34032495  1
  C  C206  1  0.45888909  0.87144939  0.29148195  1
  O  O207  1  0.39957928  0.72074433  0.26502090  1
  Zn  Zn208  1  0.27733304  0.59253330  0.37120103  1
  C  C209  1  0.43771383  0.68427938  0.41977661  1
  O  O210  1  0.33783445  0.72684176  0.40585760  1
  C  C211  1  0.01966877  0.88497055  0.38401611  1
  H  H212  1  0.36388739  0.70538583  0.47720388  1
  C  C213  1  0.49007200  0.75469049  0.40986275  1
  C  C214  1  0.00370667  0.81796873  0.42964092  1
  C  C215  1  0.02019191  0.85689850  0.28613497  1
  O  O216  1  0.15075931  0.51486683  0.40747168  1
  C  C217  1  0.20539882  0.83977519  0.49556919  1
  C  C218  1  0.01374795  0.77061050  0.25317726  1
  H  H219  1  0.02859527  0.68654091  0.26450199  1
  C  C220  1  0.04972627  0.75194554  0.62027019  1
  Zn  Zn221  1  0.07984361  0.92942731  0.60063840  1
  O  O222  1  0.37457642  0.96902407  0.74072177  1
  C  C223  1  0.14305703  0.92529016  0.70464909  1
  C  C224  1  0.18183717  0.97700095  0.67085211  1
  C  C225  1  0.07608796  0.75961451  0.56158849  1
  O  O226  1  0.08239140  0.72698078  0.65673551  1
  O  O227  1  0.32716088  0.81312070  0.53764458  1
  Zn  Zn228  1  0.14688401  0.61983104  0.64442529  1
  H  H229  1  0.42976923  0.72000678  0.56434072  1
  C  C230  1  0.23198523  0.91406587  0.66909590  1
  C  C231  1  0.06199514  0.64980581  0.54007105  1
  H  H232  1  0.37128607  0.55551846  0.52396301  1
  C  C233  1  0.12808512  0.80503993  0.53740089  1
  C  C234  1  0.26539490  0.57724358  0.57786603  1
  H  H235  1  0.04762963  0.93182480  0.70649661  1
  H  H236  1  0.26869718  0.64893907  0.55272075  1
  C  C237  1  0.35614648  0.89328198  0.54008866  1
  C  C238  1  0.24264072  0.80883902  0.69616237  1
  C  C239  1  0.17130947  0.91545974  0.53361995  1
  C  C240  1  0.45080317  0.89800453  0.58771320  1
  C  C241  1  0.29087857  0.91982750  0.64749821  1
  C  C242  1  0.48597348  0.97485687  0.61626293  1
  H  H243  1  0.33255980  0.80575211  0.71054896  1
  Zn  Zn244  1  0.46757572  0.82037134  0.65451974  1
  C  C245  1  0.30321292  0.79866223  0.67790190  1
  H  H246  1  0.19636192  0.93182341  0.57033813  1
  H  H247  1  0.24829079  0.80772669  0.51090801  1
  C  C248  1  0.22165165  0.56836386  0.61228439  1
  H  H249  1  0.31191502  0.72353705  0.65404090  1
  H  H250  1  0.28665926  0.91316126  0.60463034  1
  C  C251  1  0.46400574  0.77853367  0.57851273  1
  H  H252  1  0.02965692  0.50099637  0.58600238  1
  C  C253  1  0.40921208  0.95003174  0.55129295  1
  C  C254  1  0.02443175  0.54663364  0.54806446  1
  H  H255  1  0.31498539  0.99236336  0.66044243  1
  C  C256  1  0.08482252  0.93784280  0.73185642  1
  C  C257  1  0.49542359  0.97645904  0.67436664  1
  C  C258  1  0.20409133  0.75952545  0.72879527  1
  C  C259  1  0.15501153  0.82201739  0.73047072  1
  H  H260  1  0.15275735  0.99345239  0.51609731  1
  O  O261  1  0.26533775  0.60646713  0.74982930  1
  C  C262  1  0.16058446  0.74455587  0.50025339  1
  H  H263  1  0.05046250  0.88046993  0.88890372  1
  Zn  Zn264  1  0.19571781  0.66134336  0.86983732  1
  O  O265  1  0.09656730  0.72334259  0.86712476  1
  H  H266  1  0.06249173  0.68494362  0.86549106  1
  H  H267  1  0.10879748  0.83887921  0.80514476  1
  O  O268  1  0.18903244  0.61423741  0.79526637  1
  H  H269  1  0.11394360  0.69697029  0.89931884  1
  H  H270  1  0.28344561  0.98855267  0.80809582  1
  C  C271  1  0.22094113  0.64781237  0.75778918  1
  O  O272  1  0.27660039  0.53975976  0.86640517  1
  C  C273  1  0.21536900  0.86781013  0.91985565  1
  H  H274  1  0.07144161  0.75508920  0.75532036  1
  C  C275  1  0.40729427  0.88649939  0.76774705  1
  H  H276  1  0.23389797  0.90374913  0.77873320  1
  O  O277  1  0.23950677  0.79583547  0.89323471  1
  C  C278  1  0.10121792  0.82592966  0.76386377  1
  O  O279  1  0.39523862  0.78921967  0.76934949  1
  C  C280  1  0.19354363  0.97729471  0.89706701  1
  H  H281  1  0.07588422  0.96644379  0.96142718  1
  C  C282  1  0.01809697  0.94272140  0.88278394  1
  C  C283  1  0.46058568  0.94204025  0.78400715  1
  O  O284  1  0.21010917  0.85173777  0.96602315  1
  C  C285  1  0.23984714  0.98514253  0.79787007  1
  C  C286  1  0.14801281  0.57934474  0.97064263  1
  O  O287  1  0.03227527  0.58941123  0.75694779  1
  O  O288  1  0.09613375  0.57598023  0.96991780  1
  O  O289  1  0.17412373  0.55566397  0.92981035  1
  H  H290  1  0.26323835  0.53998489  0.83121100  1
  H  H291  1  0.30694286  0.66571353  0.99111628  1
  H  H292  1  0.28191399  0.62590046  0.87414238  1
  O  O293  1  0.48612994  0.62008202  0.98226783  1
  C  C294  1  0.59754873  0.23018774  0.18759640  1
  H  H295  1  0.66028975  0.36605941  0.16507869  1
  C  C296  1  0.54017105  0.25857694  0.19190038  1
  C  C297  1  0.85844067  0.44814491  0.01677876  1
  O  O298  1  0.90731646  0.39342246  0.15663577  1
  C  C299  1  0.62776093  0.34696901  0.19527444  1
  H  H300  1  0.68337546  0.20556640  0.09833112  1
  C  C301  1  0.87832192  0.33915584  0.04467630  1
  C  C302  1  0.82813003  0.27245835  0.02075759  1
  C  C303  1  0.51668677  0.05762296  0.18068773  1
  C  C304  1  0.92924974  0.08711661  0.00539251  1
  O  O305  1  0.93972030  0.03011985  0.09862278  1
  C  C306  1  0.66798488  0.18336744  0.06081718  1
  C  C307  1  0.75792263  0.37155221  0.12691471  1
  H  H308  1  0.62034290  0.29757396  0.00174600  1
  H  H309  1  0.77144074  0.10343820  0.09259519  1
  H  H310  1  0.84310677  0.15566933  0.10914332  1
  C  C311  1  0.75615887  0.45853710  0.17126044  1
  C  C312  1  0.97311349  0.12059872  0.08790012  1
  C  C313  1  0.53304982  0.38377915  0.19503650  1
  C  C314  1  0.62471624  0.08845853  0.05947828  1
  H  H315  1  0.60915408  0.32874491  0.06922811  1
  C  C316  1  0.57743829  0.02499835  0.17553854  1
  H  H317  1  0.65220203  0.33181004  0.22996414  1
  O  O318  1  0.80858821  0.05432341  0.16875695  1
  C  C319  1  0.79870756  0.14772698  0.12151205  1
  C  C320  1  0.77628418  0.25539581  0.14254493  1
  H  H321  1  0.74271411  0.33860451  0.04644952  1
  C  C322  1  0.61340716  0.11671773  0.17997170  1
  C  C323  1  0.77484772  0.22056897  0.19325898  1
  H  H324  1  0.79638962  0.24578664  0.04915625  1
  C  C325  1  0.74047454  0.40086956  0.07785881  1
  O  O326  1  0.59217162  0.43602737  0.19880769  1
  C  C327  1  0.75179526  0.41836734  0.22571647  1
  H  H328  1  0.88005141  0.34682799  0.08808506  1
  C  C329  1  0.61803173  0.26115984  0.04124932  1
  C  C330  1  0.89329772  0.45049430  0.19125094  1
  C  C331  1  0.57496855  0.15680867  0.04504456  1
  H  H332  1  0.72631444  0.48916323  0.06580594  1
  H  H333  1  0.92030319  0.31403707  0.02767329  1
  C  C334  1  0.67080254  0.05141858  0.17856636  1
  H  H335  1  0.94207536  0.07715233  0.23402891  1
  C  C336  1  0.79367133  0.10830710  0.20704755  1
  H  H337  1  0.69440940  0.08415482  0.14579723  1
  C  C338  1  0.96570039  0.15275654  0.03723066  1
  H  H339  1  0.70417904  0.16705717  0.03467719  1
  H  H340  1  0.69832826  0.07909785  0.21173642  1
  C  C341  1  0.99492214  0.24167871  0.00895762  1
  C  C342  1  0.75559592  0.29576749  0.23223312  1
  C  C343  1  0.53480111  0.10969172  0.00330210  1
  O  O344  1  0.74388653  0.31913585  0.40447932  1
  C  C345  1  0.60570753  0.39563721  0.40471777  1
  C  C346  1  0.79163880  0.01100984  0.39844428  1
  H  H347  1  0.72533216  0.20334492  0.29593471  1
  H  H348  1  0.61487674  0.37897806  0.44552339  1
  C  C349  1  0.50492773  0.39715980  0.40405571  1
  C  C350  1  0.82350284  0.10366585  0.43185203  1
  C  C351  1  0.98155075  0.03305153  0.32452678  1
  C  C352  1  0.97617818  0.09150249  0.40729534  1
  O  O353  1  0.70233249  0.47399933  0.31048415  1
  H  H354  1  0.74634299  0.00905521  0.40844162  1
  H  H355  1  0.79706883  0.15363785  0.45920019  1
  H  H356  1  0.79511941  0.24519166  0.30251487  1
  Zn  Zn357  1  0.90054436  0.41625244  0.27320583  1
  C  C358  1  0.76333402  0.21647277  0.27660505  1
  H  H359  1  0.52757199  0.11373506  0.39248815  1
  H  H360  1  0.69794683  0.09964919  0.46583488  1
  C  C361  1  0.95413429  0.14694360  0.32273928  1
  O  O362  1  0.65494036  0.09103199  0.30420339  1
  H  H363  1  0.94956422  0.06231724  0.44098526  1
  C  C364  1  0.62489924  0.02352593  0.32323906  1
  O  O365  1  0.55054975  0.33706635  0.39887064  1
  H  H366  1  0.64064566  0.35329133  0.38274249  1
  H  H367  1  0.85055783  0.16443524  0.40886929  1
  O  O368  1  0.94868595  0.18526836  0.37089301  1
  C  C369  1  0.72441176  0.47833071  0.27017202  1
  O  O370  1  0.53977592  0.02311285  0.45540094  1
  H  H371  1  0.63424943  0.01470755  0.45399111  1
  C  C372  1  0.67714809  0.01484971  0.46993284  1
  Zn  Zn373  1  0.54436519  0.20768048  0.29607964  1
  O  O374  1  0.79151681  0.09667961  0.25407358  1
  H  H375  1  0.79861477  0.01719030  0.35700221  1
  C  C376  1  0.71655262  0.30134352  0.43953303  1
  O  O377  1  0.93913418  0.19654126  0.28566547  1
  C  C378  1  0.85420062  0.00271914  0.45906928  1
  H  H379  1  0.80415072  0.49599739  0.31705477  1
  O  O380  1  0.69026846  0.28286030  0.47661927  1
  C  C381  1  0.50583059  0.13781030  0.35707083  1
  C  C382  1  0.50801810  0.05405531  0.31540663  1
  C  C383  1  0.56253995  0.00680641  0.29927610  1
  C  C384  1  0.98279464  0.41472326  0.65935420  1
  C  C385  1  0.67926479  0.04055046  0.61563503  1
  H  H386  1  0.62425310  0.39174547  0.62871100  1
  H  H387  1  0.77459515  0.14530753  0.54420839  1
  C  C388  1  0.69611866  0.04407265  0.56478246  1
  O  O389  1  0.89675400  0.15191061  0.53464153  1
  C  C390  1  0.50553944  0.08650010  0.58776212  1
  O  O391  1  0.96068197  0.12671661  0.68367246  1
  C  C392  1  0.98198230  0.10394401  0.72583482  1
  Zn  Zn393  1  0.97688373  0.17749975  0.60300632  1
  O  O394  1  0.70300091  0.14350890  0.69346462  1
  O  O395  1  0.57603090  0.20048741  0.64035724  1
  H  H396  1  0.71094726  0.21622755  0.53897828  1
  C  C397  1  0.73322543  0.14807103  0.56472553  1
  C  C398  1  0.90626425  0.05205569  0.54221185  1
  H  H399  1  0.79711857  0.22372140  0.71506364  1
  C  C400  1  0.83290041  0.39269400  0.70548856  1
  H  H401  1  0.81163395  0.25842785  0.64936649  1
  O  O402  1  0.97330038  0.35904361  0.62137942  1
  C  C403  1  0.93460776  0.45705158  0.69373548  1
  Zn  Zn404  1  0.90020829  0.31320944  0.73179219  1
  C  C405  1  0.87383146  0.45249345  0.67289935  1
  H  H406  1  0.69193663  0.33184225  0.64265435  1
  C  C407  1  0.82331723  0.27577620  0.69167386  1
  O  O408  1  0.73582481  0.20108648  0.61167484  1
  C  C409  1  0.66644281  0.41129135  0.64157537  1
  C  C410  1  0.70232996  0.12577380  0.64917346  1
  C  C411  1  0.54719461  0.16938078  0.60743539  1
  H  H412  1  0.70036112  0.44890402  0.72169700  1
  Zn  Zn413  1  0.51808320  0.23924953  0.53496231  1
  C  C414  1  0.53193586  0.02117961  0.50102838  1
  O  O415  1  0.93409037  0.02368962  0.57929760  1
  C  C416  1  0.67281069  0.48588444  0.69150439  1
  O  O417  1  0.50081235  0.48618423  0.70142449  1
  H  H418  1  0.64551748  0.02229905  0.70962260  1
  H  H419  1  0.52773962  0.45518200  0.50413848  1
  O  O420  1  0.59216407  0.27451668  0.81813221  1
  C  C421  1  0.59398455  0.17217876  0.81810145  1
  C  C422  1  0.54578901  0.09262134  0.81108515  1
  C  C423  1  0.77380524  0.43801140  0.95979321  1
  C  C424  1  0.96673291  0.41179349  0.95190774  1
  H  H425  1  0.86954635  0.07665462  0.88455869  1
  Zn  Zn426  1  0.68705312  0.29234454  0.84524368  1
  O  O427  1  0.75012609  0.48772631  0.80143451  1
  C  C428  1  0.83709886  0.41692847  0.76134005  1
  Zn  Zn429  1  0.50184063  0.03582876  0.92584156  1
  H  H430  1  0.85254379  0.47760368  0.85001118  1
  H  H431  1  0.98656600  0.46791558  0.97956367  1
  H  H432  1  0.84178459  0.19942918  0.99727529  1
  O  O433  1  0.64025983  0.12843721  0.82689087  1
  C  C434  1  0.91380300  0.11603482  0.95530179  1
  O  O435  1  0.75957116  0.30572769  0.80516954  1
  C  C436  1  0.89239726  0.44880468  0.78308266  1
  H  H437  1  0.92460479  0.44885638  0.93996205  1
  O  O438  1  0.71571132  0.26931277  0.95743768  1
  C  C439  1  0.94730814  0.22074765  0.87206004  1
  C  C440  1  0.50841713  0.18325737  0.96379028  1
  C  C441  1  0.72770417  0.36172721  0.94144705  1
  O  O442  1  0.69456762  0.40478977  0.90799863  1
  O  O443  1  0.50740774  0.27268818  0.94628141  1
  C  C444  1  0.97148991  0.28749100  0.96077875  1
  C  C445  1  0.77707148  0.40540293  0.79295334  1
  O  O446  1  0.92828925  0.19833952  0.83178421  1
  C  C447  1  0.94430981  0.20771080  0.92766890  1
  H  H448  1  0.92387589  0.49198182  0.85726422  1
  C  C449  1  0.87158556  0.05661604  0.92707299  1
  C  C450  1  0.94124680  0.48010659  0.75146723  1
  C  C451  1  0.81309043  0.38910620  0.99233750  1
  H  H452  1  0.52144906  0.29498826  0.75822338  1
  C  C453  1  0.96799508  0.00561957  0.75847910  1
  O  O454  1  0.58356417  0.81738949  0.17053746  1
  O  O455  1  0.96007815  0.57890585  0.06464227  1
  C  C456  1  0.92392893  0.63266676  0.02540150  1
  C  C457  1  0.60168763  0.91165972  0.17096283  1
  O  O458  1  0.93533632  0.72981737  0.01588415  1
  H  H459  1  0.96810547  0.94323205  0.19888681  1
  Zn  Zn460  1  0.74233356  0.62747741  0.22639648  1
  C  C461  1  0.86510866  0.70181937  0.12456965  1
  H  H462  1  0.86760092  0.98044828  0.04627255  1
  C  C463  1  0.58679472  0.91452318  0.01704653  1
  C  C464  1  0.85613239  0.76756150  0.20020032  1
  H  H465  1  0.80248442  0.85158962  0.13857486  1
  H  H466  1  0.59002065  0.77275307  0.07338418  1
  H  H467  1  0.87354653  0.89848662  0.13990470  1
  H  H468  1  0.99143813  0.77111554  0.21652291  1
  C  C469  1  0.87918788  0.56356015  0.21210927  1
  C  C470  1  0.84516231  0.82605512  0.14765455  1
  C  C471  1  0.74952345  0.57264396  0.14916983  1
  O  O472  1  0.74233517  0.63244781  0.11302924  1
  H  H473  1  0.83420644  0.65485911  0.10103261  1
  C  C474  1  0.86856841  0.66077659  0.17906648  1
  H  H475  1  0.90694188  0.68979143  0.10438681  1
  O  O476  1  0.66509279  0.93609431  0.16905601  1
  C  C477  1  0.56100348  0.82488695  0.04720870  1
  H  H478  1  0.53273580  0.76608535  0.02598784  1
  H  H479  1  0.93663537  0.91955193  0.03533797  1
  C  C480  1  0.69809059  0.92805410  0.02433688  1
  C  C481  1  0.87310390  0.56380793  0.00781635  1
  C  C482  1  0.91430574  0.99999036  0.04546259  1
  O  O483  1  0.73928852  0.96976291  0.03823302  1
  C  C484  1  0.96326643  0.99637520  0.23313208  1
  C  C485  1  0.63587579  0.97599748  0.03928941  1
  H  H486  1  0.93619916  0.51113043  0.06814319  1
  Zn  Zn487  1  0.54853119  0.99990426  0.07017754  1
  H  H488  1  0.54250519  0.67689320  0.23753828  1
  C  C489  1  0.55221779  0.58614160  0.39967585  1
  H  H490  1  0.62630747  0.76787513  0.31954105  1
  C  C491  1  0.99061557  0.96693232  0.27758792  1
  C  C492  1  0.60107629  0.78740689  0.28452849  1
  C  C493  1  0.90231876  0.66649817  0.49718092  1
  Zn  Zn494  1  0.71044675  0.85468952  0.46528663  1
  C  C495  1  0.97034254  0.52753740  0.37667847  1
  C  C496  1  0.87385329  0.76860345  0.46797659  1
  C  C497  1  0.55868271  0.88536404  0.29120859  1
  H  H498  1  0.62573285  0.52824932  0.35380961  1
  H  H499  1  0.95128199  0.75349993  0.32239930  1
  H  H500  1  0.90329994  0.67764634  0.36446796  1
  C  C501  1  0.60992348  0.52485939  0.39428252  1
  C  C502  1  0.86891434  0.71100146  0.28743134  1
  H  H503  1  0.54290163  0.63885201  0.30445407  1
  C  C504  1  0.50349656  0.52025192  0.40761694  1
  H  H505  1  0.62864913  0.78880191  0.25025888  1
  Zn  Zn506  1  0.85289269  0.87640260  0.31575763  1
  C  C507  1  0.90497464  0.73813257  0.33229337  1
  C  C508  1  0.82840930  0.91956691  0.42743807  1
  H  H509  1  0.86332372  0.53698999  0.35740900  1
  C  C510  1  0.54707168  0.70824722  0.27694366  1
  O  O511  1  0.77326213  0.72701527  0.37077301  1
  C  C512  1  0.79960483  0.70262396  0.40679184  1
  H  H513  1  0.98360598  0.87220940  0.45777089  1
  O  O514  1  0.80302724  0.60162236  0.42394479  1
  C  C515  1  0.86900238  0.58824869  0.27143383  1
  C  C516  1  0.54116853  0.69958345  0.40099555  1
  H  H517  1  0.93121757  0.61327640  0.47247355  1
  C  C518  1  0.83458654  0.80286370  0.43239396  1
  H  H519  1  0.64521513  0.56805658  0.41235145  1
  O  O520  1  0.63704641  0.96601925  0.36287851  1
  Zn  Zn521  1  0.57230442  0.85664869  0.39727562  1
  C  C522  1  0.84932694  0.51347596  0.31643612  1
  O  O523  1  0.94253107  0.50923733  0.41200124  1
  C  C524  1  0.99212988  0.99537324  0.37390155  1
  C  C525  1  0.51141930  0.81631369  0.29040084  1
  C  C526  1  0.85844949  0.79230445  0.25053084  1
  O  O527  1  0.63423038  0.66907432  0.49792373  1
  H  H528  1  0.97898502  0.73985592  0.42221881  1
  H  H529  1  0.54168234  0.60395851  0.48834324  1
  O  O530  1  0.99847667  0.54403183  0.34072361  1
  H  H531  1  0.59890987  0.88943646  0.69890690  1
  H  H532  1  0.50209733  0.75747619  0.55416641  1
  C  C533  1  0.65293871  0.86566089  0.53965205  1
  H  H534  1  0.84177444  0.94489814  0.71281303  1
  C  C535  1  0.65134739  0.76142932  0.50731881  1
  Zn  Zn536  1  0.97937700  0.58880443  0.64806299  1
  C  C537  1  0.85218469  0.53185338  0.63142302  1
  H  H538  1  0.59995663  0.68553018  0.58581045  1
  C  C539  1  0.80851726  0.87541983  0.57789710  1
  H  H540  1  0.97413571  0.77242212  0.53101095  1
  C  C541  1  0.72895044  0.68216206  0.66133852  1
  C  C542  1  0.75389890  0.64558714  0.57393398  1
  C  C543  1  0.75395652  0.72261803  0.61583706  1
  O  O544  1  0.57132465  0.60446446  0.73332431  1
  C  C545  1  0.53624284  0.54348610  0.71669605  1
  H  H546  1  0.92776164  0.76008579  0.67222005  1
  C  C547  1  0.64035287  0.94964507  0.63258492  1
  H  H548  1  0.76170451  0.90251364  0.64624880  1
  C  C549  1  0.88632955  0.79797831  0.67563455  1
  H  H550  1  0.53793390  0.99975626  0.68617133  1
  C  C551  1  0.60014680  0.76483531  0.61012859  1
  C  C552  1  0.72921204  0.74293364  0.71465650  1
  C  C553  1  0.72747188  0.54058120  0.56874735  1
  H  H554  1  0.87231248  0.60777680  0.51678820  1
  H  H555  1  0.89995258  0.98203431  0.66755620  1
  O  O556  1  0.87167667  0.60228129  0.60361538  1
  C  C557  1  0.88634152  0.92245955  0.69752560  1
  H  H558  1  0.80596307  0.52275837  0.61909803  1
  H  H559  1  0.59246324  0.75538131  0.65176052  1
  H  H560  1  0.86189654  0.78746483  0.63945727  1
  C  C561  1  0.92425372  0.92350333  0.74498098  1
  H  H562  1  0.82127813  0.81411640  0.54787243  1
  O  O563  1  0.76591305  0.80965882  0.72731136  1
  C  C564  1  0.77579162  0.84434535  0.61595328  1
  C  C565  1  0.92993182  0.75989915  0.53286428  1
  H  H566  1  0.91755817  0.76009319  0.57589970  1
  C  C567  1  0.62972098  0.85826674  0.59480579  1
  H  H568  1  0.55630799  0.95293596  0.52154608  1
  O  O569  1  0.51957350  0.57506022  0.55988968  1
  C  C570  1  0.70412412  0.57605335  0.65855040  1
  C  C571  1  0.62860250  0.95262763  0.68322776  1
  O  O572  1  0.99858074  0.75505962  0.62670800  1
  H  H573  1  0.82022944  0.96733595  0.57432939  1
  C  C574  1  0.53217852  0.54477148  0.51850978  1
  C  C575  1  0.68114982  0.97081843  0.52239582  1
  O  O576  1  0.69243550  0.71229333  0.74375556  1
  H  H577  1  0.98077673  0.56642513  0.54309059  1
  H  H578  1  0.63193492  0.51772703  0.70785463  1
  C  C579  1  0.69937192  0.50831758  0.61292649  1
  Zn  Zn580  1  0.85988201  0.71524694  0.74543353  1
  C  C581  1  0.89942778  0.85224726  0.50037320  1
  Zn  Zn582  1  0.76772502  0.58212458  0.50111773  1
  C  C583  1  0.88809096  0.96886910  0.50074482  1
  C  C584  1  0.93717961  0.81574409  0.82855828  1
  O  O585  1  0.83887620  0.98455557  0.93726438  1
  C  C586  1  0.98780820  0.55936750  0.77004329  1
  Zn  Zn587  1  0.84165612  0.77568016  0.94755603  1
  H  H588  1  0.75869743  0.79856654  0.87061935  1
  H  H589  1  0.72030469  0.68653430  0.94686487  1
  H  H590  1  0.99922918  0.96710100  0.92022953  1
  H  H591  1  0.60675756  0.88576222  0.87344125  1
  H  H592  1  0.55133008  0.72642500  0.79367789  1
  C  C593  1  0.54400846  0.78908051  0.82271787  1
  C  C594  1  0.59301793  0.88043936  0.83323876  1
  C  C595  1  0.78723813  0.55863142  0.95093434  1
  O  O596  1  0.88284433  0.64150359  0.82451137  1
  C  C597  1  0.92355803  0.70792206  0.85558379  1
  C  C598  1  0.97533352  0.90237727  0.84212363  1
  H  H599  1  0.81177449  0.68184210  0.86252392  1
  C  C600  1  0.83469962  0.60755054  0.96973089  1
  C  C601  1  0.74939703  0.64325239  0.92126453  1
  H  H602  1  0.72522665  0.58942518  0.89216752  1
  H  H603  1  0.98375439  0.61325599  0.80758710  1
  C  C604  1  0.91544559  0.83726680  0.77868859  1
  H  H605  1  0.62921796  0.86531879  0.80827243  1
  C  C606  1  0.78409632  0.73082416  0.89021652  1
  O  O607  1  0.94191316  0.67431595  0.89471780  1
  C  C608  1  0.99044597  0.99054755  0.80694125  1
  C  C609  1  0.55065746  0.97338736  0.81614786  1
  H  H610  1  0.52424507  0.75215991  0.85671757  1
  C  C611  1  0.50732100  0.89216026  0.80651882  1
  C  C612  1  0.54566606  0.98412740  0.99105226  1
  C  C613  1  0.88916910  0.50632969  0.83167639  1
  O  O614  1  0.70144682  0.84829218  0.98550166  1
  H  H615  1  0.65886749  0.82177169  0.98853908  1
