# generated using pymatgen
data_Cu5H12C32O19
_symmetry_space_group_name_H-M   'P 1'
_cell_length_a   17.53450257
_cell_length_b   14.36559488
_cell_length_c   34.14565376
_cell_angle_alpha   90.00000000
_cell_angle_beta   90.00000000
_cell_angle_gamma   90.00000000
_symmetry_Int_Tables_number   1
_chemical_formula_structural   Cu5H12C32O19
_chemical_formula_sum   'Cu40 H96 C256 O152'
_cell_volume   8601.07029424
_cell_formula_units_Z   8
loop_
 _symmetry_equiv_pos_site_id
 _symmetry_equiv_pos_as_xyz
  1  'x, y, z'
loop_
 _atom_site_type_symbol
 _atom_site_label
 _atom_site_symmetry_multiplicity
 _atom_site_fract_x
 _atom_site_fract_y
 _atom_site_fract_z
 _atom_site_occupancy
  H  H0  1  0.16668453  0.38224296  0.17872306  1
  C  C1  1  0.39506674  0.06279546  0.00139265  1
  O  O2  1  0.29446430  0.34579738  0.06018096  1
  H  H3  1  0.38158888  0.23579835  0.20320229  1
  H  H4  1  0.20141180  0.18837610  0.23448737  1
  C  C5  1  0.36151696  0.35003514  0.23537676  1
  C  C6  1  0.25653401  0.36141190  0.09135067  1
  O  O7  1  0.25491379  0.23281378  0.15714886  1
  O  O8  1  0.17825438  0.42144852  0.03351269  1
  H  H9  1  0.13256341  0.12379045  0.15450379  1
  C  C10  1  0.12924969  0.17401360  0.13072026  1
  C  C11  1  0.26782557  0.29388003  0.18548109  1
  H  H12  1  0.10841692  0.04224605  0.06133721  1
  C  C13  1  0.06824157  0.17784256  0.10421708  1
  C  C14  1  0.19121991  0.24094366  0.13049551  1
  C  C15  1  0.33806381  0.29022511  0.20671338  1
  Cu  Cu16  1  0.38779297  0.27236124  0.00517631  1
  C  C17  1  0.22376240  0.37267471  0.19485879  1
  C  C18  1  0.06483812  0.17706929  0.22599408  1
  C  C19  1  0.12167832  0.36704178  0.03742193  1
  Cu  Cu20  1  0.26976664  0.40855972  0.01388380  1
  O  O21  1  0.39120006  0.14981355  0.01899957  1
  Cu  Cu22  1  0.43540229  0.18323458  0.06869748  1
  C  C23  1  0.24689968  0.43409709  0.22424629  1
  C  C24  1  0.06604237  0.23837245  0.07195013  1
  O  O25  1  0.45685590  0.29618518  0.04550594  1
  C  C26  1  0.18380419  0.29944660  0.09887111  1
  C  C27  1  0.12545808  0.30233939  0.07035742  1
  O  O28  1  0.49242178  0.39353443  0.15219767  1
  Cu  Cu29  1  0.45456731  0.41995024  0.03274952  1
  C  C30  1  0.07592386  0.07762107  0.22752996  1
  O  O31  1  0.27009165  0.42585002  0.11251906  1
  O  O32  1  0.03499425  0.38193248  0.22578791  1
  C  C33  1  0.31556169  0.42591443  0.24502850  1
  C  C34  1  0.03462039  0.02926323  0.19850564  1
  O  O35  1  0.06913647  0.37064576  0.01173181  1
  H  H36  1  0.02376670  0.12621864  0.11248858  1
  H  H37  1  0.02300386  0.23387102  0.04892341  1
  C  C38  1  0.12408133  0.00243705  0.03558724  1
  O  O39  1  0.25442902  0.01057687  0.05378582  1
  O  O40  1  0.48670631  0.22206786  0.11096569  1
  O  O41  1  0.46935059  0.25263800  0.24642174  1
  H  H42  1  0.09517263  0.22535124  0.24558075  1
  C  C43  1  0.02126620  0.22348462  0.19997180  1
  C  C44  1  0.01054700  0.33057503  0.19714543  1
  C  C45  1  0.08629074  0.32955667  0.36996770  1
  C  C46  1  0.03374952  0.40875969  0.37001101  1
  C  C47  1  0.18997886  0.06801796  0.31742040  1
  C  C48  1  0.00835918  0.43890275  0.33289904  1
  H  H49  1  0.33207754  0.48201024  0.26800944  1
  C  C50  1  0.21234242  0.17109962  0.26576565  1
  O  O51  1  0.35067836  0.26607899  0.46472925  1
  O  O52  1  0.28435942  0.17285558  0.40214165  1
  C  C53  1  0.27034588  0.20639328  0.32710079  1
  O  O54  1  0.44039510  0.07249457  0.25480629  1
  O  O55  1  0.11873034  0.15492802  0.49234612  1
  C  C56  1  0.23431292  0.12686626  0.34194966  1
  O  O57  1  0.44467753  0.36689940  0.28689724  1
  H  H58  1  0.30437474  0.24748355  0.34838750  1
  C  C59  1  0.09018308  0.07511733  0.49563940  1
  C  C60  1  0.26043760  0.23111062  0.28799292  1
  O  O61  1  0.09919599  0.28493925  0.33907120  1
  H  H62  1  0.02134144  0.40059322  0.30473337  1
  Cu  Cu63  1  0.36215114  0.14066734  0.43659179  1
  C  C64  1  0.29427518  0.43823495  0.48997932  1
  O  O65  1  0.21288176  0.04673534  0.40219599  1
  O  O66  1  0.44846726  0.11135609  0.46544561  1
  O  O67  1  0.11439879  0.29692446  0.40234990  1
  C  C68  1  0.17332501  0.09523900  0.28041611  1
  H  H69  1  0.29530723  0.28770471  0.27272153  1
  C  C70  1  0.24475711  0.11157746  0.38346711  1
  Cu  Cu71  1  0.08623663  0.15239191  0.33505368  1
  O  O72  1  0.29422055  0.03748931  0.46887603  1
  H  H73  1  0.02734271  0.41092977  0.43389954  1
  Cu  Cu74  1  0.12257856  0.17205736  0.41486724  1
  H  H75  1  0.31872659  0.43656101  0.46081628  1
  O  O76  1  0.06982717  0.03427449  0.46475600  1
  O  O77  1  0.12017546  0.03653202  0.25323449  1
  O  O78  1  0.03610773  0.13150232  0.38390521  1
  H  H79  1  0.06786056  0.47721529  0.46950324  1
  C  C80  1  0.01550577  0.44866101  0.40756592  1
  O  O81  1  0.38665155  0.02084009  0.30798706  1
  C  C82  1  0.31724586  0.26656472  0.49704023  1
  C  C83  1  0.43177418  0.32747740  0.25754183  1
  O  O84  1  0.01708401  0.29095900  0.47530568  1
  C  C85  1  0.42482355  0.00721631  0.27769066  1
  H  H86  1  0.20839315  0.05917705  0.62126658  1
  C  C87  1  0.13117562  0.38866947  0.68666608  1
  H  H88  1  0.20360879  0.02650525  0.69463264  1
  O  O89  1  0.19215512  0.43638869  0.60687785  1
  O  O90  1  0.08730607  0.18698378  0.61849082  1
  H  H91  1  0.38385497  0.34689938  0.71927606  1
  O  O92  1  0.31006885  0.19752760  0.51856871  1
  C  C93  1  0.10273493  0.15839041  0.58330572  1
  C  C94  1  0.38022325  0.02850479  0.73326491  1
  C  C95  1  0.06998443  0.03211745  0.53404462  1
  O  O96  1  0.02801731  0.04037540  0.64048143  1
  C  C97  1  0.26335310  0.38233120  0.70707472  1
  Cu  Cu98  1  0.05034721  0.31032851  0.62928493  1
  C  C99  1  0.07250984  0.06918032  0.57328306  1
  C  C100  1  0.36254438  0.36265888  0.65882255  1
  O  O101  1  0.13495598  0.21212424  0.55899364  1
  O  O102  1  0.10923604  0.36390942  0.72172412  1
  C  C103  1  0.20983162  0.39705175  0.67680633  1
  O  O104  1  0.34067549  0.07310132  0.71093158  1
  H  H105  1  0.24585330  0.29368399  0.56449674  1
  Cu  Cu106  1  0.07572490  0.25293012  0.51700120  1
  C  C107  1  0.31219593  0.39519645  0.63040301  1
  O  O108  1  0.08047257  0.40899873  0.66239449  1
  C  C109  1  0.28814240  0.35694289  0.51160536  1
  C  C110  1  0.33914755  0.36023687  0.69734562  1
  C  C111  1  0.23440074  0.41329656  0.63652241  1
  Cu  Cu112  1  0.24557453  0.09076160  0.51018154  1
  H  H113  1  0.11635559  0.46554638  0.53658369  1
  H  H114  1  0.41796834  0.33947825  0.64734196  1
  C  C115  1  0.24974064  0.35823010  0.54814561  1
  H  H116  1  0.33324807  0.40830429  0.59936537  1
  C  C117  1  0.22535671  0.43925991  0.56459711  1
  O  O118  1  0.23930254  0.03426626  0.56001072  1
  O  O119  1  0.02362955  0.33680498  0.54433924  1
  C  C120  1  0.03787857  0.01553772  0.60352969  1
  O  O121  1  0.45228921  0.00927909  0.72298637  1
  C  C122  1  0.21509925  0.03389720  0.76763414  1
  O  O123  1  0.29210685  0.35627438  0.77554096  1
  C  C124  1  0.07630973  0.14115817  0.89824242  1
  C  C125  1  0.23444026  0.29736988  0.87186321  1
  Cu  Cu126  1  0.33132973  0.38578909  0.82391795  1
  O  O127  1  0.22631522  0.37000143  0.88873025  1
  O  O128  1  0.29421244  0.28253073  0.84955116  1
  H  H129  1  0.26280548  0.13466357  0.84169568  1
  C  C130  1  0.20873048  0.13253957  0.85662250  1
  C  C131  1  0.11528754  0.22606760  0.89516120  1
  C  C132  1  0.18198305  0.21637896  0.87335789  1
  H  H133  1  0.09643399  0.29159891  0.91089629  1
  C  C134  1  0.10295601  0.05503522  0.88429957  1
  O  O135  1  0.21594487  0.11471252  0.76026942  1
  O  O136  1  0.20672382  0.45547378  0.76308741  1
  O  O137  1  0.38650404  0.05988180  0.96779020  1
  C  C138  1  0.17035913  0.04796894  0.86239572  1
  O  O139  1  0.39356680  0.48972350  0.81271084  1
  Cu  Cu140  1  0.10069299  0.43930602  0.76297990  1
  C  C141  1  0.00530258  0.13426250  0.92268589  1
  O  O142  1  0.00050765  0.41846895  0.76919396  1
  O  O143  1  0.37100488  0.40012668  0.99774127  1
  O  O144  1  0.43392647  0.49264429  0.75086137  1
  C  C145  1  0.25359545  0.39942052  0.75075158  1
  O  O146  1  0.47786633  0.63956458  0.04067187  1
  C  C147  1  0.43963907  0.61242060  0.10884607  1
  H  H148  1  0.34576249  0.51923705  0.11698430  1
  C  C149  1  0.39613588  0.97503739  0.02942913  1
  C  C150  1  0.34324046  0.88864001  0.07898749  1
  C  C151  1  0.20032150  0.98389645  0.02815561  1
  H  H152  1  0.33610160  0.55612849  0.18859158  1
  C  C153  1  0.48940229  0.67468052  0.12944075  1
  C  C154  1  0.06731532  0.96568847  0.01124930  1
  H  H155  1  0.28874628  0.86700916  0.09304664  1
  H  H156  1  0.41204906  0.77171765  0.10492357  1
  C  C157  1  0.47663942  0.87766562  0.23617744  1
  C  C158  1  0.38303836  0.57034042  0.13006608  1
  C  C159  1  0.37603856  0.59805092  0.17023592  1
  C  C160  1  0.44390570  0.59362253  0.06709611  1
  C  C161  1  0.48320132  0.70473537  0.16885548  1
  C  C162  1  0.40704364  0.82748440  0.08201800  1
  C  C163  1  0.42064943  0.66104202  0.18853515  1
  H  H164  1  0.04048926  0.95369980  0.19124388  1
  C  C165  1  0.46481001  0.84764297  0.05610279  1
  O  O166  1  0.13470037  0.52338986  0.21225417  1
  C  C167  1  0.46238295  0.91689017  0.02815563  1
  C  C168  1  0.33344113  0.95989817  0.05232467  1
  H  H169  1  0.41371686  0.67318785  0.22079058  1
  O  O170  1  0.40350762  0.52573523  0.05558894  1
  Cu  Cu171  1  0.04118026  0.51605414  0.23591458  1
  C  C172  1  0.20030621  0.51618775  0.23274941  1
  H  H173  1  0.47324533  0.92268254  0.21047413  1
  C  C174  1  0.44878454  0.90839306  0.27271225  1
  O  O175  1  0.20805879  0.90171635  0.32865898  1
  Cu  Cu176  1  0.24668385  0.94946713  0.43625482  1
  C  C177  1  0.45118196  0.84972177  0.30425358  1
  O  O178  1  0.44632151  0.71943552  0.36130721  1
  C  C179  1  0.26567905  0.60733259  0.47958911  1
  H  H180  1  0.43411652  0.86239034  0.33476356  1
  O  O181  1  0.09529058  0.95361057  0.34177738  1
  O  O182  1  0.30097635  0.60390300  0.44945379  1
  C  C183  1  0.03970672  0.52452962  0.49148475  1
  Cu  Cu184  1  0.29783587  0.95801200  0.31708881  1
  O  O185  1  0.28065247  0.85387125  0.46879776  1
  O  O186  1  0.22892028  0.68218912  0.49093747  1
  O  O187  1  0.49655856  0.60756216  0.32483195  1
  Cu  Cu188  1  0.33264607  0.94395124  0.49777446  1
  C  C189  1  0.47902892  0.75730749  0.29658405  1
  C  C190  1  0.47026800  0.69549201  0.33033026  1
  C  C191  1  0.15658900  0.96686285  0.32901482  1
  H  H192  1  0.03480896  0.91998950  0.49543867  1
  O  O193  1  0.21412517  0.57162103  0.25888940  1
  C  C194  1  0.24023267  0.87960735  0.68711874  1
  O  O195  1  0.35013686  0.71570190  0.59638535  1
  C  C196  1  0.29166627  0.75379717  0.59445540  1
  C  C197  1  0.27780191  0.68241667  0.71655566  1
  C  C198  1  0.32730086  0.61439610  0.72997372  1
  Cu  Cu199  1  0.26123180  0.79593523  0.51660775  1
  C  C200  1  0.03016142  0.87730703  0.55685775  1
  O  O201  1  0.28005667  0.71585353  0.67640236  1
  H  H202  1  0.02109182  0.80066495  0.55069360  1
  H  H203  1  0.06724693  0.56983886  0.58785999  1
  H  H204  1  0.18898698  0.77477721  0.73296892  1
  O  O205  1  0.29049213  0.90099371  0.54277265  1
  H  H206  1  0.23066558  0.87305499  0.71830224  1
  H  H207  1  0.02159229  0.87359272  0.61661969  1
  H  H208  1  0.35948544  0.57620175  0.70841016  1
  C  C209  1  0.03888515  0.57118983  0.55761534  1
  H  H210  1  0.22168159  0.58669103  0.55898513  1
  C  C211  1  0.23583163  0.52320465  0.54363406  1
  C  C212  1  0.26719077  0.83065760  0.62423141  1
  O  O213  1  0.24631573  0.73564939  0.56424678  1
  C  C214  1  0.26283127  0.80519032  0.66387176  1
  C  C215  1  0.04357235  0.94142641  0.52602353  1
  O  O216  1  0.01096154  0.71404154  0.60883563  1
  C  C217  1  0.24889405  0.92073447  0.60865922  1
  C  C218  1  0.02812586  0.92051920  0.59276669  1
  C  C219  1  0.25876949  0.95393028  0.56906222  1
  C  C220  1  0.23240327  0.72508530  0.74488755  1
  C  C221  1  0.26798749  0.52320054  0.50534436  1
  C  C222  1  0.07084071  0.51480293  0.52864149  1
  O  O223  1  0.48846625  0.53320703  0.65081611  1
  C  C224  1  0.21906599  0.96987446  0.67453450  1
  C  C225  1  0.22654984  0.99101893  0.63527990  1
  H  H226  1  0.03798744  0.99987970  0.72068516  1
  H  H227  1  0.44611122  0.85591926  0.84175109  1
  C  C228  1  0.29182036  0.63800834  0.79905736  1
  O  O229  1  0.13075502  0.78555054  0.80235142  1
  C  C230  1  0.15935566  0.89378090  0.97173110  1
  H  H231  1  0.28114167  0.90610159  0.99354976  1
  H  H232  1  0.03765363  0.87629923  0.96138377  1
  C  C233  1  0.18093036  0.83052435  0.93610397  1
  O  O234  1  0.10127842  0.55885039  0.86799443  1
  Cu  Cu235  1  0.10679080  0.91529948  0.79722362  1
  C  C236  1  0.33451814  0.59255496  0.77043218  1
  O  O237  1  0.24566642  0.81879141  0.92927504  1
  O  O238  1  0.19506924  0.96431260  0.84815749  1
  C  C239  1  0.23752376  0.70103439  0.78470922  1
  C  C240  1  0.18653241  0.74152137  0.81457593  1
  C  C241  1  0.27243668  0.95991062  0.82815683  1
  C  C242  1  0.08305635  0.90796762  0.97955811  1
  O  O243  1  0.19291001  0.72357678  0.85102699  1
  C  C244  1  0.21829990  0.92504620  0.99645052  1
  Cu  Cu245  1  0.12071611  0.67861017  0.88815292  1
  O  O246  1  0.12401827  0.79335420  0.91574494  1
  C  C247  1  0.06013260  0.54771420  0.83703973  1
  O  O248  1  0.08801365  0.52966511  0.80317327  1
  H  H249  1  0.30032320  0.62084058  0.83030415  1
  C  C250  1  0.40374384  0.89753112  0.82760925  1
  H  H251  1  0.32061629  0.89392709  0.87782001  1
  O  O252  1  0.15697411  0.98063174  0.75896361  1
  O  O253  1  0.01287387  0.95192099  0.78203201  1
  C  C254  1  0.28684896  0.98989246  0.79031937  1
  C  C255  1  0.33116719  0.91159247  0.84627127  1
  C  C256  1  0.41971189  0.94622912  0.79369706  1
  H  H257  1  0.00655248  0.58036866  0.96692933  1
  H  H258  1  0.07255744  0.98379408  0.88843459  1
  C  C259  1  0.39221637  0.52277748  0.77827156  1
  C  C260  1  0.35724787  0.98742761  0.77156690  1
  H  H261  1  0.47638473  0.94842604  0.78213870  1
  C  C262  1  0.56991788  0.19342274  0.17128987  1
  C  C263  1  0.94556277  0.02237881  0.14434077  1
  C  C264  1  0.55547039  0.36994677  0.15752997  1
  O  O265  1  0.90318619  0.05603675  0.11662662  1
  C  C266  1  0.62720503  0.13734776  0.23210450  1
  C  C267  1  0.58422383  0.28643536  0.18262459  1
  O  O268  1  0.54629663  0.42825106  0.05536352  1
  O  O269  1  0.98170803  0.36133946  0.16872524  1
  C  C270  1  0.62278330  0.33080413  0.00284511  1
  O  O271  1  0.63927457  0.39584306  0.23023650  1
  O  O272  1  0.52916201  0.08220305  0.12273243  1
  C  C273  1  0.97558835  0.17575239  0.17291019  1
  C  C274  1  0.61978331  0.42948531  0.02509943  1
  H  H275  1  0.68770018  0.24370760  0.04221231  1
  H  H276  1  0.93679437  0.21141134  0.15210437  1
  Cu  Cu277  1  0.52090825  0.32995555  0.08208569  1
  C  C278  1  0.65528537  0.24846762  0.01636049  1
  O  O279  1  0.61499576  0.41892019  0.13989594  1
  C  C280  1  0.53074008  0.15985028  0.13320251  1
  O  O281  1  0.87555163  0.39550882  0.00175198  1
  H  H282  1  0.57851596  0.04771342  0.18665575  1
  C  C283  1  0.59054370  0.11873654  0.19553469  1
  C  C284  1  0.62350250  0.30791860  0.21624245  1
  C  C285  1  0.98777488  0.07957386  0.17358840  1
  O  O286  1  0.67088190  0.47262178  0.03857922  1
  C  C287  1  0.63633480  0.23084182  0.24110196  1
  Cu  Cu288  1  0.97574102  0.42576622  0.01559357  1
  Cu  Cu289  1  0.68745588  0.48267529  0.16684435  1
  O  O290  1  0.96236274  0.03403223  0.04567102  1
  H  H291  1  0.72307188  0.35276321  0.46310504  1
  O  O292  1  0.65918274  0.12254120  0.31737383  1
  O  O293  1  0.54587012  0.47381976  0.40165452  1
  C  C294  1  0.61498285  0.31744935  0.37889705  1
  C  C295  1  0.62341193  0.18294471  0.33167857  1
  H  H296  1  0.65091112  0.08136374  0.25080942  1
  C  C297  1  0.78873781  0.43212015  0.33260726  1
  C  C298  1  0.74387516  0.35616661  0.27421086  1
  C  C299  1  0.95424006  0.25322533  0.47118683  1
  C  C300  1  0.71176789  0.20079308  0.38869286  1
  C  C301  1  0.68386004  0.41592052  0.26875452  1
  O  O302  1  0.94784349  0.20332199  0.44029309  1
  Cu  Cu303  1  0.96256736  0.20996708  0.36245853  1
  H  H304  1  0.56352289  0.34351621  0.36340563  1
  H  H305  1  0.65805415  0.25026089  0.26991181  1
  Cu  Cu306  1  0.94273722  0.14513422  0.26983874  1
  O  O307  1  0.56340691  0.21482473  0.31384737  1
  C  C308  1  0.56495792  0.04456185  0.48628103  1
  H  H309  1  0.75220836  0.30305426  0.25265480  1
  O  O310  1  0.80236303  0.19844409  0.44285941  1
  C  C311  1  0.74407742  0.23929818  0.42333296  1
  O  O312  1  0.89338022  0.28734097  0.34090773  1
  O  O313  1  0.89772973  0.02284270  0.27036747  1
  C  C314  1  0.64314618  0.35591190  0.41423969  1
  C  C315  1  0.59793403  0.44091106  0.42571455  1
  H  H316  1  0.73652421  0.13608569  0.37416039  1
  H  H317  1  0.83384899  0.44129539  0.35708148  1
  O  O318  1  0.86246348  0.22189650  0.28544143  1
  O  O319  1  0.61191774  0.48426751  0.45456825  1
  C  C320  1  0.70457214  0.31760223  0.43600108  1
  C  C321  1  0.79470240  0.35675391  0.30716097  1
  C  C322  1  0.65160754  0.23593029  0.36737769  1
  C  C323  1  0.72627577  0.49012378  0.32719160  1
  C  C324  1  0.85087455  0.28469212  0.31080494  1
  C  C325  1  0.81789319  0.23057398  0.48396181  1
  C  C326  1  0.67383255  0.48771801  0.29524829  1
  O  O327  1  0.98413334  0.14395470  0.31785832  1
  C  C328  1  0.50428439  0.05383335  0.45568723  1
  Cu  Cu329  1  0.98345285  0.04742355  0.35581436  1
  O  O330  1  0.85230306  0.01325217  0.39024527  1
  Cu  Cu331  1  0.50405362  0.15406646  0.28055932  1
  Cu  Cu332  1  0.98945757  0.08941944  0.43196140  1
  O  O333  1  0.50953146  0.01685926  0.42470701  1
  C  C334  1  0.88833093  0.25614740  0.49868242  1
  H  H335  1  0.70351773  0.19115571  0.49551776  1
  C  C336  1  0.75657377  0.22341105  0.50743947  1
  H  H337  1  0.57677345  0.25940026  0.52330926  1
  C  C338  1  0.54445432  0.24618029  0.65934307  1
  Cu  Cu339  1  0.55505877  0.36013361  0.72600865  1
  H  H340  1  0.54159029  0.42824163  0.52013728  1
  C  C341  1  0.54692746  0.39161190  0.54925287  1
  C  C342  1  0.53594288  0.39097550  0.61994614  1
  H  H343  1  0.70920226  0.23778908  0.56739940  1
  C  C344  1  0.89736222  0.27841091  0.53910286  1
  C  C345  1  0.55247040  0.09942112  0.52034473  1
  H  H346  1  0.83090825  0.28431955  0.59528965  1
  C  C347  1  0.75972042  0.24363603  0.54830520  1
  C  C348  1  0.82893981  0.26843731  0.56278865  1
  C  C349  1  0.96523284  0.30746905  0.56176490  1
  O  O350  1  0.59083587  0.16107451  0.58789342  1
  O  O351  1  0.96494077  0.30344378  0.59867734  1
  C  C352  1  0.53552464  0.43875179  0.58449215  1
  C  C353  1  0.60358772  0.09912221  0.55102910  1
  Cu  Cu354  1  0.50911645  0.09235881  0.69656667  1
  C  C355  1  0.56754048  0.29875315  0.55070661  1
  O  O356  1  0.57006877  0.44914479  0.68550634  1
  C  C357  1  0.54856942  0.29347337  0.62223546  1
  C  C358  1  0.57487102  0.25188595  0.58662609  1
  O  O359  1  0.56473407  0.16193656  0.66320400  1
  C  C360  1  0.66119250  0.03585140  0.55053430  1
  O  O361  1  0.57372088  0.12664656  0.74065743  1
  C  C362  1  0.52503973  0.46236192  0.65457043  1
  O  O363  1  0.51289066  0.28638767  0.68887967  1
  O  O364  1  0.91311659  0.48778778  0.73731310  1
  H  H365  1  0.70057842  0.02270702  0.57568925  1
  H  H366  1  0.50174938  0.14622195  0.52241015  1
  O  O367  1  0.97588167  0.19433910  0.94085543  1
  H  H368  1  0.62025533  0.12002995  0.93521041  1
  C  C369  1  0.81116534  0.26416698  0.95406381  1
  C  C370  1  0.55110034  0.22318911  0.84058460  1
  C  C371  1  0.56311281  0.05748549  0.81992976  1
  C  C372  1  0.58248215  0.33940573  0.96801774  1
  C  C373  1  0.55583504  0.43364782  0.95830186  1
  C  C374  1  0.66760716  0.46701360  0.85251963  1
  C  C375  1  0.57587464  0.26327364  0.94133774  1
  C  C376  1  0.72914083  0.24107947  0.89658989  1
  C  C377  1  0.76123043  0.39175023  0.91471219  1
  O  O378  1  0.53507717  0.27418262  0.90935678  1
  H  H379  1  0.70001406  0.19191586  0.87762469  1
  C  C380  1  0.77167801  0.10634723  0.93670917  1
  C  C381  1  0.54144460  0.19578576  0.87822433  1
  C  C382  1  0.55787928  0.15351548  0.81052770  1
  C  C383  1  0.61269227  0.18015257  0.95449836  1
  C  C384  1  0.76900674  0.20393574  0.92969450  1
  H  H385  1  0.76063190  0.46937140  0.90721392  1
  C  C386  1  0.79914957  0.35861534  0.94765010  1
  O  O387  1  0.52196623  0.45509583  0.93031101  1
  C  C388  1  0.65804858  0.45024437  0.78225446  1
  H  H389  1  0.55591024  0.29790032  0.83398281  1
  H  H390  1  0.84333690  0.23578514  0.97905992  1
  C  C391  1  0.54821563  0.10177763  0.88812829  1
  H  H392  1  0.57776564  0.00385632  0.79596702  1
  H  H393  1  0.54150266  0.08007933  0.91971248  1
  C  C394  1  0.56248635  0.03490202  0.85804485  1
  O  O395  1  0.68252177  0.37202579  0.85560797  1
  O  O396  1  0.71236309  0.41435758  0.76982066  1
  C  C397  1  0.72325836  0.33265039  0.88810362  1
  O  O398  1  0.81485904  0.07452085  0.96469111  1
  O  O399  1  0.58608827  0.44030551  0.76473887  1
  O  O400  1  0.54521011  0.26467933  0.76582271  1
  C  C401  1  0.83643561  0.43227507  0.97293371  1
  O  O402  1  0.73240661  0.05365622  0.91516715  1
  C  C403  1  0.56476077  0.17767242  0.76935397  1
  O  O404  1  0.97860855  0.04567214  0.92549926  1
  C  C405  1  0.65124865  0.17303621  0.98973711  1
  O  O406  1  0.57589960  0.48794118  0.98883751  1
  Cu  Cu407  1  0.89843443  0.00068449  0.95147085  1
  C  C408  1  0.95047974  0.48357224  0.76690037  1
  H  H409  1  0.65318902  0.48994787  0.91103633  1
  H  H410  1  0.68657260  0.10966351  0.99677556  1
  O  O411  1  0.58634634  0.85142056  0.00643424  1
  O  O412  1  0.68016093  0.68283760  0.02783857  1
  C  C413  1  0.55925358  0.70955768  0.10877826  1
  C  C414  1  0.98614562  0.98778115  0.01765000  1
  Cu  Cu415  1  0.67432996  0.82572476  0.03839963  1
  Cu  Cu416  1  0.60482564  0.52351847  0.10788337  1
  O  O417  1  0.59411922  0.64065289  0.08420604  1
  C  C418  1  0.76145667  0.72113700  0.19521603  1
  O  O419  1  0.59303247  0.77793809  0.11655731  1
  C  C420  1  0.76924933  0.79419788  0.22252562  1
  C  C421  1  0.78103170  0.88351878  0.20958036  1
  C  C422  1  0.78014930  0.89927987  0.16885111  1
  Cu  Cu423  1  0.58094593  0.65218476  0.03192372  1
  H  H424  1  0.74849828  0.67732938  0.13652251  1
  C  C425  1  0.76342755  0.73514906  0.15546899  1
  C  C426  1  0.94710786  0.60829804  0.04282979  1
  O  O427  1  0.79337078  0.93891128  0.09133360  1
  Cu  Cu428  1  0.69504407  0.62460889  0.07494580  1
  C  C429  1  0.77225980  0.82657055  0.14216514  1
  H  H430  1  0.85381163  0.75151305  0.03624924  1
  O  O431  1  0.75475107  0.80164793  0.07349597  1
  C  C432  1  0.77649865  0.85718604  0.10025159  1
  O  O433  1  0.78857248  0.95632656  0.23639866  1
  O  O434  1  0.99302163  0.53821530  0.03589738  1
  O  O435  1  0.52585585  0.76727358  0.18716919  1
  C  C436  1  0.93418240  0.66245407  0.00651068  1
  C  C437  1  0.74663308  0.62750758  0.21360368  1
  O  O438  1  0.92922494  0.63488076  0.07476953  1
  O  O439  1  0.69849688  0.55536612  0.12032861  1
  O  O440  1  0.75523744  0.55114714  0.19147538  1
  C  C441  1  0.53948673  0.92311468  0.00556684  1
  H  H442  1  0.78300702  0.96980362  0.15575403  1
  O  O443  1  0.95828329  0.94006313  0.14537042  1
  C  C444  1  0.88192683  0.73352836  0.00879888  1
  O  O445  1  0.73370683  0.62503224  0.24743264  1
  H  H446  1  0.51607629  0.80234031  0.05628412  1
  C  C447  1  0.50530697  0.78857657  0.23013523  1
  Cu  Cu448  1  0.88125773  0.98274325  0.07355032  1
  H  H449  1  0.64783319  0.91240234  0.24976704  1
  O  O450  1  0.75883926  0.86104624  0.00378353  1
  H  H451  1  0.62917948  0.54315663  0.28989098  1
  O  O452  1  0.76597801  0.92573412  0.41797859  1
  C  C453  1  0.79966859  0.95472759  0.30809802  1
  C  C454  1  0.62324768  0.98071328  0.48308245  1
  O  O455  1  0.64991508  0.61436818  0.34851435  1
  O  O456  1  0.73697588  0.85409562  0.48908533  1
  O  O457  1  0.95394686  0.51955599  0.26665705  1
  C  C458  1  0.80180572  0.95999442  0.38604274  1
  C  C459  1  0.64537007  0.90201192  0.31213307  1
  H  H460  1  0.63345560  0.93621665  0.45903774  1
  C  C461  1  0.68121919  0.91224004  0.27597544  1
  H  H462  1  0.58473876  0.87945578  0.31369404  1
  Cu  Cu463  1  0.80545362  0.82565950  0.44769631  1
  O  O464  1  0.85312821  0.72234096  0.47487238  1
  H  H465  1  0.66463189  0.91985067  0.37646072  1
  C  C466  1  0.68729428  0.91955404  0.34640115  1
  C  C467  1  0.88122175  0.97746085  0.30040324  1
  C  C468  1  0.76736595  0.94000498  0.34579344  1
  C  C469  1  0.75630972  0.94439875  0.27468953  1
  Cu  Cu470  1  0.56038466  0.56630659  0.36517145  1
  C  C471  1  0.97015798  0.52127546  0.33623960  1
  H  H472  1  0.93651978  0.64013525  0.36570286  1
  O  O473  1  0.93550748  0.65201001  0.30036854  1
  C  C474  1  0.95772249  0.56832867  0.37195787  1
  C  C475  1  0.94683588  0.57225047  0.29962534  1
  O  O476  1  0.95072771  0.59513062  0.44349101  1
  C  C477  1  0.71428880  0.56794792  0.35514401  1
  O  O478  1  0.75279757  0.58387211  0.38302562  1
  C  C479  1  0.97901035  0.58551427  0.47962918  1
  C  C480  1  0.50852644  0.72740284  0.26030177  1
  C  C481  1  0.97721013  0.53101040  0.40798082  1
  H  H482  1  0.52260849  0.65431587  0.25472346  1
  O  O483  1  0.93362583  0.96237833  0.32461185  1
  H  H484  1  0.77046530  0.77848017  0.25488000  1
  O  O485  1  0.78215546  0.83861167  0.61814546  1
  C  C486  1  0.91370419  0.92579240  0.65202599  1
  C  C487  1  0.96250814  0.68947372  0.58702032  1
  C  C488  1  0.79649023  0.82213298  0.65447606  1
  Cu  Cu489  1  0.83760215  0.80785920  0.56926890  1
  O  O490  1  0.88973016  0.70928504  0.59311276  1
  O  O491  1  0.78251055  0.90827652  0.54395426  1
  O  O492  1  0.75929486  0.77863526  0.67651593  1
  C  C493  1  0.87857442  0.85521373  0.71366170  1
  C  C494  1  0.94307268  0.90141123  0.72747609  1
  H  H495  1  0.83805156  0.81309803  0.73228364  1
  O  O496  1  0.62432201  0.62105342  0.74179337  1
  O  O497  1  0.90365985  0.78710237  0.52691889  1
  C  C498  1  0.86759918  0.86484469  0.67397585  1
  H  H499  1  0.90356762  0.93684469  0.62006255  1
  C  C500  1  0.95596008  0.64528158  0.50946845  1
  C  C501  1  0.73636407  0.91521746  0.51658071  1
  C  C502  1  0.67213278  0.98274891  0.51587731  1
  Cu  Cu503  1  0.52938681  0.55578471  0.74032284  1
  C  C504  1  0.98403567  0.63717536  0.54794361  1
  H  H505  1  0.51981103  0.51302557  0.58331866  1
  C  C506  1  0.97847965  0.97304382  0.66697271  1
  C  C507  1  0.99205323  0.96220803  0.70564027  1
  C  C508  1  0.90116748  0.72224961  0.50290705  1
  O  O509  1  0.60456418  0.87825124  0.84804787  1
  C  C510  1  0.64961367  0.61389046  0.81170142  1
  Cu  Cu511  1  0.69392232  0.94031066  0.92694113  1
  C  C512  1  0.65680356  0.51808750  0.81751747  1
  C  C513  1  0.89622058  0.75328923  0.93660065  1
  C  C514  1  0.86171383  0.62763675  0.86454508  1
  C  C515  1  0.81717431  0.60936907  0.83193739  1
  C  C516  1  0.63637910  0.67008480  0.77412344  1
  C  C517  1  0.59158385  0.93831816  0.87155219  1
  C  C518  1  0.79323441  0.83641264  0.97271552  1
  H  H519  1  0.62988967  0.67278184  0.90843050  1
  H  H520  1  0.83109430  0.66256413  0.88898914  1
  O  O521  1  0.92613030  0.84275798  0.79130133  1
  O  O522  1  0.76600299  0.85463506  0.93984603  1
  H  H523  1  0.88041094  0.78842142  0.90941481  1
  H  H524  1  0.63198671  0.75175695  0.84294766  1
  C  C525  1  0.63940619  0.62870579  0.88266159  1
  C  C526  1  0.98066097  0.57124092  0.83747428  1
  C  C527  1  0.96663396  0.63479717  0.97002863  1
  C  C528  1  0.64324027  0.67221500  0.84572344  1
  C  C529  1  0.85945419  0.77518408  0.97312610  1
  C  C530  1  0.94279045  0.61624582  0.86929715  1
  O  O531  1  0.84388104  0.51115472  0.96467987  1
  O  O532  1  0.62719357  0.75293155  0.77137665  1
  C  C533  1  0.93743916  0.54568477  0.80410611  1
  H  H534  1  0.75741727  0.63818973  0.82949092  1
  C  C535  1  0.96043607  0.89379142  0.76926581  1
  O  O536  1  0.94084301  0.95000578  0.99309930  1
  C  C537  1  0.94908470  0.68178822  0.93598940  1
  C  C538  1  0.85850066  0.56068235  0.80283460  1
  O  O539  1  0.59803101  0.92504361  0.90766772  1
  O  O540  1  0.98596669  0.63429121  0.89937234  1
  C  C541  1  0.65669601  0.53026392  0.88332610  1
  H  H542  1  0.82775963  0.53143303  0.77761345  1
  O  O543  1  0.55991012  0.99095797  0.98943544  1
