# generated using pymatgen
data_Cu2H13C27NO8
_symmetry_space_group_name_H-M   'P 1'
_cell_length_a   22.67263410
_cell_length_b   15.95960302
_cell_length_c   20.65383038
_cell_angle_alpha   90.00000000
_cell_angle_beta   90.00000000
_cell_angle_gamma   90.00000000
_symmetry_Int_Tables_number   1
_chemical_formula_structural   Cu2H13C27NO8
_chemical_formula_sum   'Cu18 H117 C243 N9 O72'
_cell_volume   7473.51085898
_cell_formula_units_Z   9
loop_
 _symmetry_equiv_pos_site_id
 _symmetry_equiv_pos_as_xyz
  1  'x, y, z'
loop_
 _atom_site_type_symbol
 _atom_site_label
 _atom_site_symmetry_multiplicity
 _atom_site_fract_x
 _atom_site_fract_y
 _atom_site_fract_z
 _atom_site_occupancy
  O  O0  1  0.18567156  0.04172088  0.10756979  1
  C  C1  1  0.06236613  0.37623128  0.28643971  1
  O  O2  1  0.04698536  0.44578368  0.29610971  1
  C  C3  1  0.19575678  0.26470102  0.40723996  1
  O  O4  1  0.03945688  0.33115289  0.23892899  1
  C  C5  1  0.21661997  0.41298458  0.45614683  1
  C  C6  1  0.12323559  0.25464825  0.31902570  1
  C  C7  1  0.16673643  0.21964331  0.35836145  1
  C  C8  1  0.13803535  0.38522077  0.37539510  1
  C  C9  1  0.11135244  0.33873035  0.32773945  1
  H  H10  1  0.12885159  0.45225636  0.37855402  1
  H  H11  1  0.12405411  0.14701109  0.05974214  1
  C  C12  1  0.19959744  0.11542670  0.00866118  1
  H  H13  1  0.09835803  0.21585186  0.28333225  1
  C  C14  1  0.14928110  0.16394031  0.01529689  1
  C  C15  1  0.04483027  0.42164820  0.02933655  1
  C  C16  1  0.21239310  0.04655950  0.05594626  1
  O  O17  1  0.17290760  0.08450536  0.30859583  1
  O  O18  1  0.21599716  0.09858599  0.40056056  1
  C  C19  1  0.18505658  0.12972869  0.35606553  1
  C  C20  1  0.18302333  0.35113454  0.41530278  1
  H  H21  1  0.22961914  0.23837500  0.43807483  1
  C  C22  1  0.21990403  0.49755385  0.44165211  1
  C  C23  1  0.09257023  0.37555974  0.00185726  1
  Cu  Cu24  1  0.23236399  0.07375040  0.18068315  1
  O  O25  1  0.14251404  0.45980691  0.11348944  1
  H  H26  1  0.16934156  0.29606326  0.88930130  1
  H  H27  1  0.06764550  0.20377480  0.89586215  1
  C  C28  1  0.22329158  0.18866223  0.91398870  1
  C  C29  1  0.02577734  0.40504688  0.87959352  1
  C  C30  1  0.13740438  0.23167043  0.97428962  1
  O  O31  1  0.11654128  0.07312453  0.87794168  1
  C  C32  1  0.03256950  0.19247584  0.86272915  1
  C  C33  1  0.17375469  0.23999241  0.92018116  1
  O  O34  1  0.23676410  0.25484604  0.81145623  1
  H  H35  1  0.06819218  0.39957459  0.85429674  1
  C  C36  1  0.06903409  0.04969976  0.84782537  1
  Cu  Cu37  1  0.19470064  0.04038717  0.84761051  1
  O  O38  1  0.20446535  0.42736081  0.94960665  1
  H  H39  1  0.12676555  0.48925103  0.91433873  1
  H  H40  1  0.02183370  0.18790111  0.98773312  1
  C  C41  1  0.24063658  0.13029727  0.96071409  1
  C  C42  1  0.02502781  0.11213144  0.83582658  1
  C  C43  1  0.00528444  0.48817221  0.89513959  1
  H  H44  1  0.13517483  0.40682131  0.99449880  1
  C  C45  1  0.24859117  0.38355279  0.51362992  1
  C  C46  1  0.02807777  0.25425837  0.99898063  1
  C  C47  1  0.08493709  0.28861011  0.99212687  1
  C  C48  1  0.13012876  0.60825991  0.09910979  1
  H  H49  1  0.16804631  0.62212966  0.13225343  1
  C  C50  1  0.11973723  0.67868223  0.04472066  1
  O  O51  1  0.18951382  0.80180386  0.29110941  1
  C  C52  1  0.05458896  0.50323030  0.06149312  1
  C  C53  1  0.11297012  0.51610360  0.09432822  1
  C  C54  1  0.08610697  0.68444880  0.09089751  1
  H  H55  1  0.19372091  0.73870907  0.30077943  1
  C  C56  1  0.23446828  0.82034112  0.25304113  1
  O  O57  1  0.24231062  0.89672619  0.24090803  1
  H  H58  1  0.23634553  0.64121314  0.27586053  1
  H  H59  1  0.19953652  0.52202638  0.39610129  1
  C  C60  1  0.02190728  0.69939260  0.09668643  1
  Cu  Cu61  1  0.20447608  0.98655106  0.28058885  1
  C  C62  1  0.00675584  0.55294890  0.05823646  1
  O  O63  1  0.24879211  0.55740991  0.46718465  1
  O  O64  1  0.21285417  0.65796630  0.38869288  1
  O  O65  1  0.00535068  0.76435070  0.10747883  1
  C  C66  1  0.24401664  0.64485177  0.43268707  1
  O  O67  1  0.12600525  0.84714358  0.86392867  1
  O  O68  1  0.20884516  0.77427375  0.88266206  1
  C  C69  1  0.04663602  0.56095716  0.89318312  1
  C  C70  1  0.06063981  0.70624454  0.86236294  1
  C  C71  1  0.10915867  0.55532784  0.90533437  1
  C  C72  1  0.12075329  0.70066515  0.87909390  1
  C  C73  1  0.15605787  0.77665967  0.87624752  1
  Cu  Cu74  1  0.13663783  0.92721076  0.79394203  1
  C  C75  1  0.14669229  0.62316380  0.89884676  1
  C  C76  1  0.02384444  0.63809635  0.87249200  1
  H  H77  1  0.19373498  0.62096504  0.90898600  1
  H  H78  1  0.04449475  0.76699479  0.84281775  1
  O  O79  1  0.20700499  0.91135196  0.75258593  1
  C  C80  1  0.24892837  0.96219160  0.75584309  1
  O  O81  1  0.06513705  0.98006778  0.81867318  1
  H  H82  1  0.10546984  0.68145645  0.99236011  1
  O  O83  1  0.07471893  0.78144496  0.71138262  1
  C  C84  1  0.03251091  0.80547282  0.68574617  1
  C  C85  1  0.38738185  0.14699241  0.23494310  1
  O  O86  1  0.36153861  0.10281479  0.07473904  1
  H  H87  1  0.36453533  0.29922224  0.38999313  1
  C  C88  1  0.37585182  0.22492844  0.26437415  1
  C  C89  1  0.48226079  0.25868467  0.24523970  1
  C  C90  1  0.44081162  0.14046102  0.46838006  1
  H  H91  1  0.43734210  0.16636600  0.36197891  1
  C  C92  1  0.34233400  0.08548094  0.21774191  1
  H  H93  1  0.33176197  0.25072759  0.27955078  1
  O  O94  1  0.26035464  0.00889485  0.04531482  1
  C  C95  1  0.44436382  0.12606800  0.21316769  1
  Cu  Cu96  1  0.31273257  0.01593523  0.10806388  1
  C  C97  1  0.40995446  0.31539433  0.11317922  1
  C  C98  1  0.47143499  0.19662423  0.07717116  1
  H  H99  1  0.43796479  0.39042262  0.46205202  1
  O  O100  1  0.49140318  0.00998478  0.34413174  1
  C  C101  1  0.40356267  0.42073045  0.42859346  1
  C  C102  1  0.42443373  0.27575931  0.26717463  1
  C  C103  1  0.36547781  0.37054094  0.39103414  1
  N  N104  1  0.32762277  0.08148621  0.45291938  1
  H  H105  1  0.41769254  0.34159179  0.28516460  1
  C  C106  1  0.46444257  0.16812719  0.40734320  1
  C  C107  1  0.45184371  0.46139255  0.12666978  1
  C  C108  1  0.33208769  0.42435552  0.34942336  1
  C  C109  1  0.45984149  0.36600625  0.11279229  1
  C  C110  1  0.38074800  0.11046169  0.47152261  1
  O  O111  1  0.28919598  0.10543845  0.23765462  1
  H  H112  1  0.35872322  0.46689632  0.16880099  1
  H  H113  1  0.45118086  0.06333566  0.18996977  1
  C  C114  1  0.36134488  0.18303543  0.08820122  1
  O  O115  1  0.31678308  0.21816469  0.10414943  1
  H  H116  1  0.36433542  0.34149139  0.12426999  1
  C  C117  1  0.41712488  0.23248599  0.09267248  1
  H  H118  1  0.47737650  0.13107173  0.06345251  1
  O  O119  1  0.35241484  0.02324518  0.18414523  1
  Cu  Cu120  1  0.27680951  0.02469991  0.38079239  1
  C  C121  1  0.49161006  0.18303773  0.21566584  1
  C  C122  1  0.39821227  0.49985203  0.14873295  1
  H  H123  1  0.46253913  0.49092005  0.25494921  1
  C  C124  1  0.47371237  0.13657006  0.52930338  1
  C  C125  1  0.43719484  0.02238671  0.82112065  1
  H  H126  1  0.28272114  0.09940403  0.95814487  1
  H  H127  1  0.33310218  0.09044784  0.74279074  1
  O  O128  1  0.43636945  0.32202471  0.88681620  1
  C  C129  1  0.33912298  0.08859540  0.63762561  1
  C  C130  1  0.44817548  0.42580563  0.80207379  1
  Cu  Cu131  1  0.37703841  0.24126360  0.87395572  1
  H  H132  1  0.34635535  0.02460428  0.85459927  1
  C  C133  1  0.45635811  0.10153583  0.85272836  1
  C  C134  1  0.46890921  0.44100288  0.73829265  1
  C  C135  1  0.30227728  0.49656650  0.98455133  1
  O  O136  1  0.31061198  0.18291873  0.85067547  1
  O  O137  1  0.42482992  0.14407978  0.89110545  1
  H  H138  1  0.36769695  0.14519415  0.63894328  1
  C  C139  1  0.45867574  0.34399039  0.83378100  1
  H  H140  1  0.44979462  0.12784167  0.57418966  1
  O  O141  1  0.37665435  0.41706435  0.60549539  1
  H  H142  1  0.39328780  0.47556826  0.88232507  1
  C  C143  1  0.31892630  0.05676051  0.69566412  1
  C  C144  1  0.33521969  0.08280779  0.51403920  1
  C  C145  1  0.37472562  0.35855136  0.58056144  1
  C  C146  1  0.32105638  0.04761609  0.57948302  1
  C  C147  1  0.25581752  0.20897305  0.85029794  1
  C  C148  1  0.41287130  0.48684880  0.83298590  1
  H  H149  1  0.27334380  0.43398659  0.54366463  1
  O  O150  1  0.26060872  0.31807655  0.53715953  1
  C  C151  1  0.25034175  0.45717196  0.96479751  1
  H  H152  1  0.49589367  0.39190385  0.71149502  1
  O  O153  1  0.49507296  0.29994304  0.80402995  1
  O  O154  1  0.25736401  0.00480855  0.80710565  1
  C  C155  1  0.40025319  0.58803884  0.14621129  1
  C  C156  1  0.46259654  0.61556474  0.29706181  1
  C  C157  1  0.35192375  0.64681895  0.17057215  1
  H  H158  1  0.42314295  0.66613881  0.03028718  1
  C  C159  1  0.36020372  0.73320006  0.15861428  1
  H  H160  1  0.44337370  0.90445965  0.25601209  1
  H  H161  1  0.32491973  0.85666793  0.18548312  1
  H  H162  1  0.39313860  0.75439160  0.12668210  1
  C  C163  1  0.32131316  0.78939393  0.18991199  1
  C  C164  1  0.34733658  0.83312295  0.44510497  1
  C  C165  1  0.30736389  0.61432239  0.21241101  1
  C  C166  1  0.49760590  0.59109695  0.12569304  1
  H  H167  1  0.42620311  0.68619524  0.43502586  1
  C  C168  1  0.46540613  0.76776203  0.32313300  1
  H  H169  1  0.36879688  0.62361775  0.37783348  1
  C  C170  1  0.46667820  0.90269402  0.15870695  1
  C  C171  1  0.28986469  0.70298375  0.45741200  1
  C  C172  1  0.27533178  0.75786949  0.22912730  1
  O  O173  1  0.41109756  0.95005369  0.42368891  1
  O  O174  1  0.33421361  0.94290062  0.36613132  1
  O  O175  1  0.41400763  0.77484272  0.31509227  1
  H  H176  1  0.43393165  0.85666800  0.14784291  1
  Cu  Cu177  1  0.49165857  0.91519696  0.39768190  1
  C  C178  1  0.30746763  0.77517465  0.42220330  1
  C  C179  1  0.44538080  0.55527386  0.47073742  1
  C  C180  1  0.45519817  0.64259540  0.46648327  1
  C  C181  1  0.36647865  0.91253400  0.40806860  1
  C  C182  1  0.36983269  0.55316816  0.37876210  1
  H  H183  1  0.30660581  0.54716511  0.22676428  1
  N  N184  1  0.44771497  0.63356624  0.13275099  1
  H  H185  1  0.41401357  0.62218659  0.28933381  1
  C  C186  1  0.47543843  0.92957216  0.22102895  1
  H  H187  1  0.28495500  0.77422270  0.37374181  1
  H  H188  1  0.37714259  0.52036073  0.04243389  1
  N  N189  1  0.46333211  0.84171467  0.02315178  1
  C  C190  1  0.49834701  0.68537978  0.31654826  1
  C  C191  1  0.26904486  0.66922237  0.24140015  1
  O  O192  1  0.49584190  0.83605055  0.33489130  1
  C  C193  1  0.48871120  0.54166168  0.27584472  1
  C  C194  1  0.33433901  0.50003217  0.34289021  1
  C  C195  1  0.40394361  0.50992707  0.42465392  1
  C  C196  1  0.34934673  0.53929408  0.00124974  1
  C  C197  1  0.40299559  0.80257194  0.71260563  1
  C  C198  1  0.46197793  0.81462874  0.96149626  1
  C  C199  1  0.41240537  0.88210679  0.75404896  1
  H  H200  1  0.47288800  0.52794681  0.65789212  1
  C  C201  1  0.40048341  0.56422422  0.80440330  1
  H  H202  1  0.46850946  0.81224697  0.59776953  1
  C  C203  1  0.38362528  0.81002904  0.64714765  1
  C  C204  1  0.42618660  0.57672998  0.73939791  1
  H  H205  1  0.31943883  0.89280927  0.79225686  1
  C  C206  1  0.47027823  0.91550184  0.74775775  1
  C  C207  1  0.31393899  0.68781837  0.51735128  1
  C  C208  1  0.48293236  0.98457044  0.78746257  1
  C  C209  1  0.40966145  0.74859351  0.94515407  1
  C  C210  1  0.39219750  0.66004567  0.64033820  1
  C  C211  1  0.37635489  0.75932515  0.89130823  1
  N  N212  1  0.41137655  0.72805243  0.74154060  1
  H  H213  1  0.36397279  0.79531494  0.84817386  1
  H  H214  1  0.33705681  0.61980443  0.91352959  1
  C  C215  1  0.36075623  0.61315463  0.96214207  1
  H  H216  1  0.38704071  0.60092109  0.61408241  1
  C  C217  1  0.36520651  0.91876963  0.79098594  1
  H  H218  1  0.37031812  0.87082372  0.62879764  1
  H  H219  1  0.30202548  0.63281300  0.54727397  1
  C  C220  1  0.40833876  0.65783762  0.70683449  1
  C  C221  1  0.35310089  0.74873135  0.54149703  1
  C  C222  1  0.39923770  0.67299945  0.98327031  1
  H  H223  1  0.37615293  0.61522393  0.82645705  1
  H  H224  1  0.39722370  0.87574283  0.52690232  1
  C  C225  1  0.28091068  0.98781700  0.69768740  1
  C  C226  1  0.37751931  0.73617902  0.61087946  1
  C  C227  1  0.37064705  0.82076237  0.50676799  1
  C  C228  1  0.49786661  0.82518470  0.55618584  1
  C  C229  1  0.37918828  0.99078825  0.82734742  1
  C  C230  1  0.45769924  0.51307266  0.70704912  1
  C  C231  1  0.29017944  0.96836764  0.58231612  1
  C  C232  1  0.27248468  0.93861428  0.63971168  1
  H  H233  1  0.27725342  0.93698848  0.53725422  1
  H  H234  1  0.25066493  0.87483987  0.64048792  1
  C  C235  1  0.49271806  0.67811919  0.51383641  1
  N  N236  1  0.47229300  0.50596653  0.51609675  1
  C  C237  1  0.63453996  0.41800602  0.26616454  1
  O  O238  1  0.57370932  0.07069143  0.31145313  1
  O  O239  1  0.58466466  0.14125457  0.05639589  1
  C  C240  1  0.57902363  0.21866908  0.07044054  1
  H  H241  1  0.59790205  0.06131005  0.19857015  1
  H  H242  1  0.55745631  0.37601001  0.09741170  1
  C  C243  1  0.62193229  0.16061144  0.45199424  1
  H  H244  1  0.59881145  0.21380089  0.25459377  1
  C  C245  1  0.59489771  0.28247743  0.25466342  1
  C  C246  1  0.71446832  0.20755273  0.25065806  1
  C  C247  1  0.51503755  0.33504563  0.09744097  1
  H  H248  1  0.53248849  0.40103682  0.37173071  1
  C  C249  1  0.70749440  0.29269173  0.26512807  1
  H  H250  1  0.67499874  0.47295591  0.46811716  1
  O  O251  1  0.64818478  0.42820748  0.03488161  1
  H  H252  1  0.54807380  0.18959738  0.35756823  1
  O  O253  1  0.73204090  0.03333428  0.22368049  1
  N  N254  1  0.52826943  0.39652511  0.25702171  1
  C  C255  1  0.64656373  0.33099208  0.26396724  1
  C  C256  1  0.57482769  0.44576040  0.26936773  1
  H  H257  1  0.67410134  0.17009128  0.24481772  1
  O  O258  1  0.62206626  0.27221894  0.06406457  1
  C  C259  1  0.52084446  0.24895836  0.08334773  1
  Cu  Cu260  1  0.64193477  0.05172215  0.35996190  1
  Cu  Cu261  1  0.65886561  0.10678343  0.03380941  1
  O  O262  1  0.52588054  0.40332005  0.41734945  1
  H  H263  1  0.53190463  0.16728150  0.18925249  1
  C  C264  1  0.53840919  0.31716253  0.25054037  1
  O  O265  1  0.64383746  0.15694282  0.39323711  1
  H  H266  1  0.51526641  0.45915976  0.42347763  1
  O  O267  1  0.73219835  0.14297082  0.11760082  1
  Cu  Cu268  1  0.70675110  0.02561735  0.13899273  1
  H  H269  1  0.66994385  0.46453113  0.26242712  1
  H  H270  1  0.74774386  0.35890774  0.04343193  1
  C  C271  1  0.52378331  0.18364032  0.40521725  1
  C  C272  1  0.55757102  0.16394845  0.46286540  1
  O  O273  1  0.65181356  0.15541838  0.49953288  1
  O  O274  1  0.74010544  0.08593244  0.01999739  1
  H  H275  1  0.58668436  0.00474455  0.08882746  1
  C  C276  1  0.56157116  0.01618783  0.18889741  1
  C  C277  1  0.52892975  0.02476417  0.29989529  1
  H  H278  1  0.54914124  0.47405726  0.11466258  1
  C  C279  1  0.67685694  0.48989181  0.00550579  1
  C  C280  1  0.63757990  0.36465059  0.64015680  1
  O  O281  1  0.59886937  0.18733716  0.90966571  1
  H  H282  1  0.62766184  0.29362141  0.54866451  1
  C  C283  1  0.64867276  0.15439448  0.89091825  1
  O  O284  1  0.69159437  0.36615268  0.85897221  1
  C  C285  1  0.61430894  0.42739791  0.67935639  1
  H  H286  1  0.61559503  0.16983267  0.69245196  1
  C  C287  1  0.65189088  0.06645096  0.88352203  1
  C  C288  1  0.56650727  0.06035263  0.66610460  1
  C  C289  1  0.59836367  0.02370136  0.89810859  1
  O  O290  1  0.70166275  0.25178605  0.64768910  1
  H  H291  1  0.55798127  0.05294102  0.91759766  1
  C  C292  1  0.57574241  0.48619339  0.65336287  1
  Cu  Cu293  1  0.70209527  0.26516897  0.80503445  1
  C  C294  1  0.61286287  0.10151016  0.68855354  1
  C  C295  1  0.53383117  0.14245597  0.52254099  1
  C  C296  1  0.57032522  0.40168447  0.55595473  1
  H  H297  1  0.56015005  0.12896428  0.56652086  1
  H  H298  1  0.63484277  0.43664377  0.72692484  1
  C  C299  1  0.70303979  0.02228799  0.86587843  1
  C  C300  1  0.55271506  0.47201169  0.59173092  1
  C  C301  1  0.68050109  0.31427145  0.67444000  1
  Cu  Cu302  1  0.54341416  0.23491723  0.85631017  1
  C  C303  1  0.61319596  0.34602010  0.57820430  1
  O  O304  1  0.60449566  0.38637129  0.90490981  1
  O  O305  1  0.69954290  0.33032627  0.73294666  1
  O  O306  1  0.69430415  0.19764580  0.87524837  1
  C  C307  1  0.66189751  0.04285863  0.69732144  1
  C  C308  1  0.64469517  0.41126740  0.86857810  1
  C  C309  1  0.71858649  0.06786760  0.72248713  1
  C  C310  1  0.63775042  0.48942266  0.83348809  1
  O  O311  1  0.50634346  0.13089606  0.83621601  1
  C  C312  1  0.73904579  0.47340677  0.98838894  1
  H  H313  1  0.58289444  0.00156308  0.51722238  1
  H  H314  1  0.73283966  0.48793555  0.80513686  1
  Cu  Cu315  1  0.61653388  0.33482008  0.98785607  1
  H  H316  1  0.74329186  0.05608780  0.84714796  1
  H  H317  1  0.52792109  0.01633518  0.78720642  1
  O  O318  1  0.73328302  0.14052979  0.73570657  1
  H  H319  1  0.55217909  0.38998297  0.50709088  1
  C  C320  1  0.55417539  0.98613828  0.12775878  1
  C  C321  1  0.54514226  0.65868614  0.11662384  1
  Cu  Cu322  1  0.72787532  0.97452994  0.02642130  1
  C  C323  1  0.68631742  0.72427521  0.48509286  1
  C  C324  1  0.55769214  0.79469738  0.46068887  1
  C  C325  1  0.62459868  0.72732737  0.05494869  1
  H  H326  1  0.58833939  0.83967355  0.18969822  1
  C  C327  1  0.62743686  0.79323233  0.10245901  1
  C  C328  1  0.55111936  0.72011034  0.16464628  1
  O  O329  1  0.66102424  0.95999044  0.40822310  1
  C  C330  1  0.55208079  0.53364255  0.28209928  1
  H  H331  1  0.58699580  0.73097705  0.33164403  1
  C  C332  1  0.52093552  0.98656045  0.23683550  1
  C  C333  1  0.67455361  0.54053450  0.47262312  1
  C  C334  1  0.58292208  0.87409076  0.45923122  1
  O  O335  1  0.63639861  0.83692866  0.36957826  1
  C  C336  1  0.59039576  0.78737636  0.15583039  1
  C  C337  1  0.58344124  0.66250201  0.06113745  1
  O  O338  1  0.67187955  0.91408909  0.14269850  1
  C  C339  1  0.58666510  0.59886567  0.30829657  1
  H  H340  1  0.57174863  0.74847165  0.42188143  1
  C  C341  1  0.66875665  0.86150970  0.09721482  1
  O  O342  1  0.69951198  0.87336163  0.04594279  1
  C  C343  1  0.69539613  0.66959597  0.43324559  1
  C  C344  1  0.55842176  0.67547843  0.32167970  1
  C  C345  1  0.62984693  0.89210806  0.41066591  1
  H  H346  1  0.63484461  0.59241069  0.31296489  1
  C  C347  1  0.69309165  0.59426385  0.42319523  1
  H  H348  1  0.67746361  0.79297412  0.48025582  1
  C  C349  1  0.50401625  0.89965158  0.04084322  1
  C  C350  1  0.50596378  0.50312905  0.11638320  1
  H  H351  1  0.52130370  0.72490284  0.20937769  1
  H  H352  1  0.57558389  0.97854439  0.01213606  1
  H  H353  1  0.65272439  0.72759114  0.01233791  1
  C  C354  1  0.50848935  0.92845812  0.11034879  1
  H  H355  1  0.57954262  0.61276104  0.02398333  1
  C  C356  1  0.61669043  0.69000712  0.70216444  1
  C  C357  1  0.50133960  0.84057023  0.91457468  1
  H  H358  1  0.74077605  0.58904467  0.93853564  1
  C  C359  1  0.59268062  0.77098298  0.71213175  1
  C  C360  1  0.70335131  0.93473907  0.86439056  1
  C  C361  1  0.58261235  0.53007830  0.83208012  1
  C  C362  1  0.64088511  0.71828266  0.59622191  1
  H  H363  1  0.55904673  0.64646913  0.58927630  1
  C  C364  1  0.60025004  0.93617590  0.89448294  1
  C  C365  1  0.56538038  0.93731978  0.50726611  1
  H  H366  1  0.53227436  0.62340474  0.78736583  1
  C  C367  1  0.68437318  0.58815799  0.76097584  1
  H  H368  1  0.50311833  0.95966567  0.63013360  1
  H  H369  1  0.64921468  0.82240842  0.87502473  1
  C  C370  1  0.65399222  0.95767237  0.68697652  1
  N  N371  1  0.63896172  0.66749436  0.64636545  1
  H  H372  1  0.72201274  0.61220596  0.73315381  1
  C  C373  1  0.65456707  0.58355678  0.52755706  1
  H  H374  1  0.57931444  0.79629448  0.75983269  1
  C  C375  1  0.68945437  0.51966942  0.80067835  1
  C  C376  1  0.59990801  0.92716352  0.66410388  1
  H  H377  1  0.62998409  0.84574209  0.56608515  1
  C  C378  1  0.51366141  0.53742904  0.55314540  1
  C  C379  1  0.60217698  0.83142456  0.66282349  1
  C  C380  1  0.62493913  0.80324110  0.60351121  1
  H  H381  1  0.64108142  0.53996983  0.56728939  1
  C  C382  1  0.62762797  0.62620163  0.75592522  1
  C  C383  1  0.54772811  0.89804719  0.93183052  1
  C  C384  1  0.65177670  0.89132112  0.87534770  1
  H  H385  1  0.50201898  0.81718930  0.86267035  1
  H  H386  1  0.68996938  0.91048378  0.69307226  1
  C  C387  1  0.57700886  0.60041567  0.79201897  1
  C  C388  1  0.52471865  0.89658450  0.54366940  1
  H  H389  1  0.56121769  0.54147997  0.68337766  1
  C  C390  1  0.52493107  0.62440193  0.55388801  1
  C  C391  1  0.66027774  0.67282843  0.53401397  1
  C  C392  1  0.55003730  0.98093611  0.64781130  1
  H  H393  1  0.50331506  0.88867221  0.71902439  1
  O  O394  1  0.65012945  0.55235860  0.99400951  1
  C  C395  1  0.54616710  0.92800906  0.99464492  1
  O  O396  1  0.74747096  0.80375435  0.84387936  1
  H  H397  1  0.54307235  0.50385626  0.85464457  1
  C  C398  1  0.51709657  0.76635573  0.50572994  1
  H  H399  1  0.80446660  0.24874145  0.14318553  1
  C  C400  1  0.83713700  0.23729673  0.10554142  1
  C  C401  1  0.81532531  0.17867612  0.06107812  1
  C  C402  1  0.89090574  0.28108942  0.10143071  1
  O  O403  1  0.90394562  0.33693902  0.14279854  1
  C  C404  1  0.78143093  0.07827037  0.23323020  1
  C  C405  1  0.92481005  0.25956127  0.04438286  1
  Cu  Cu406  1  0.96873473  0.33292664  0.19838299  1
  H  H407  1  0.86425963  0.18673675  0.25991853  1
  C  C408  1  0.76012988  0.13635967  0.06608505  1
  O  O409  1  0.86330619  0.42621917  0.29263027  1
  C  C410  1  0.81264069  0.30278826  0.27033401  1
  O  O411  1  0.91930143  0.31731554  0.27245226  1
  C  C412  1  0.86728930  0.35354197  0.28068391  1
  C  C413  1  0.82092729  0.21718667  0.26002592  1
  C  C414  1  0.98257754  0.30334732  0.02822100  1
  O  O415  1  0.82836393  0.04489537  0.23204093  1
  H  H416  1  0.96173098  0.41658921  0.06910979  1
  C  C417  1  0.76998875  0.16948239  0.24800271  1
  C  C418  1  0.75858969  0.34079943  0.27586452  1
  N  N419  1  0.99207347  0.38270551  0.04353229  1
  H  H420  1  0.75449698  0.40376098  0.29070426  1
  H  H421  1  0.85563243  0.34011495  0.01321103  1
  C  C422  1  0.76977004  0.40338256  0.01047825  1
  C  C423  1  0.90446066  0.19976170  0.00141409  1
  C  C424  1  0.85072850  0.15869360  0.00716077  1
  C  C425  1  0.80601775  0.38466156  0.48027860  1
  C  C426  1  0.93233252  0.15498967  0.78971639  1
  H  H427  1  0.89655197  0.30506536  0.91573479  1
  C  C428  1  0.82911279  0.39105934  0.99157763  1
  C  C429  1  0.87799583  0.14018774  0.75175303  1
  Cu  Cu430  1  0.77338260  0.21919244  0.69041342  1
  C  C431  1  0.91839040  0.43926210  0.92907937  1
  C  C432  1  0.93046318  0.35509311  0.91337192  1
  C  C433  1  0.93727673  0.23554535  0.81710272  1
  C  C434  1  0.98546594  0.33875210  0.88244478  1
  O  O435  1  0.84465405  0.20218863  0.74035226  1
  C  C436  1  0.97595669  0.09314343  0.79779245  1
  H  H437  1  0.90208704  0.28480982  0.80748277  1
  O  O438  1  0.86880878  0.07017625  0.72596290  1
  C  C439  1  0.85330121  0.45020288  0.94909660  1
  C  C440  1  0.98548826  0.24876103  0.85730993  1
  H  H441  1  0.93439124  0.18624888  0.96094745  1
  H  H442  1  0.83255500  0.11665119  0.96886224  1
  O  O443  1  0.77144029  0.35253784  0.50475967  1
  H  H444  1  0.96965305  0.03007390  0.77377012  1
  O  O445  1  0.75388653  0.00561274  0.72915955  1
  O  O446  1  0.98466783  0.62357297  0.07257642  1
  H  H447  1  0.97188387  0.51820763  0.02944515  1
  O  O448  1  0.80111143  0.92301080  0.84223649  1
  H  H449  1  0.84960198  0.57935332  0.90987407  1
  C  C450  1  0.82518629  0.52695035  0.93424551  1
  O  O451  1  0.84592575  0.69821576  0.81633698  1
  H  H452  1  0.97397509  0.64980859  0.86635539  1
  C  C453  1  0.80977972  0.73954208  0.82635942  1
  C  C454  1  0.75436086  0.88250445  0.84611859  1
  O  O455  1  0.98850352  0.82900160  0.66226082  1
  C  C456  1  0.76594972  0.53394171  0.95104589  1
  Cu  Cu457  1  0.82649068  0.99020954  0.77153747  1
  N  N458  1  0.95015089  0.50544283  0.91201294  1
