# generated using pymatgen
data_Zn4H36C66O13
_symmetry_space_group_name_H-M   'P 1'
_cell_length_a   20.52261184
_cell_length_b   13.80475059
_cell_length_c   25.88621079
_cell_angle_alpha   90.00000000
_cell_angle_beta   90.00000000
_cell_angle_gamma   90.00000000
_symmetry_Int_Tables_number   1
_chemical_formula_structural   Zn4H36C66O13
_chemical_formula_sum   'Zn16 H144 C264 O52'
_cell_volume   7333.81041842
_cell_formula_units_Z   4
loop_
 _symmetry_equiv_pos_site_id
 _symmetry_equiv_pos_as_xyz
  1  'x, y, z'
loop_
 _atom_site_type_symbol
 _atom_site_label
 _atom_site_symmetry_multiplicity
 _atom_site_fract_x
 _atom_site_fract_y
 _atom_site_fract_z
 _atom_site_occupancy
  Zn  Zn0  1  0.15167045  0.16975378  0.19101949  1
  C  C1  1  0.07270701  0.34672973  0.18476963  1
  C  C2  1  0.24122855  0.05867225  0.11536844  1
  H  H3  1  0.40410728  0.40047715  0.10456040  1
  O  O4  1  0.07481521  0.26566784  0.16260332  1
  C  C5  1  0.39721872  0.45332661  0.21210244  1
  H  H6  1  0.42668309  0.21454281  0.09101665  1
  C  C7  1  0.45383696  0.41237210  0.12343699  1
  O  O8  1  0.32486749  0.36513396  0.15380767  1
  H  H9  1  0.29278386  0.06258676  0.02258292  1
  Zn  Zn10  1  0.30656554  0.21282649  0.17376052  1
  O  O11  1  0.26769989  0.14104491  0.10689430  1
  C  C12  1  0.33187257  0.42520161  0.18999807  1
  Zn  Zn13  1  0.20737630  0.35974443  0.23794432  1
  O  O14  1  0.12203807  0.39699253  0.18975737  1
  C  C15  1  0.45250853  0.44103618  0.17963755  1
  O  O16  1  0.19808902  0.05128641  0.14861792  1
  O  O17  1  0.23135249  0.22307866  0.22335666  1
  O  O18  1  0.38195059  0.10457943  0.20544896  1
  C  C19  1  0.00798094  0.38158690  0.20491264  1
  O  O20  1  0.28321903  0.46359017  0.21179988  1
  C  C21  1  0.47794313  0.23011642  0.10151479  1
  H  H22  1  0.49674554  0.06484292  0.19415170  1
  C  C23  1  0.49847954  0.31823040  0.12151095  1
  C  C24  1  0.49490631  0.49677280  0.09718740  1
  C  C25  1  0.01269731  0.46335281  0.23832243  1
  C  C26  1  0.38785607  0.06575329  0.24770558  1
  C  C27  1  0.24490862  0.35037172  0.34349946  1
  Zn  Zn28  1  0.26066365  0.16003453  0.28762738  1
  O  O29  1  0.18195565  0.05465429  0.30352371  1
  C  C30  1  0.28802167  0.28569676  0.42417836  1
  C  C31  1  0.43327471  0.08448960  0.48103967  1
  C  C32  1  0.06315775  0.02284915  0.30840372  1
  O  O33  1  0.20732451  0.40294837  0.31720413  1
  O  O34  1  0.34297110  0.06818806  0.28218637  1
  C  C35  1  0.07915613  0.44412280  0.42921362  1
  C  C36  1  0.14783610  0.47433447  0.40875969  1
  C  C37  1  0.24116756  0.34763367  0.40090285  1
  C  C38  1  0.12375142  0.07885739  0.29554832  1
  O  O39  1  0.11037306  0.14902948  0.26787530  1
  O  O40  1  0.28861817  0.30173077  0.32001901  1
  C  C41  1  0.28652938  0.27122551  0.47735923  1
  C  C42  1  0.19683745  0.40086195  0.43223099  1
  H  H43  1  0.32266892  0.25225173  0.39815167  1
  H  H44  1  0.34948836  0.08689199  0.42882134  1
  C  C45  1  0.41008663  0.49726094  0.26021282  1
  H  H46  1  0.15597048  0.48043203  0.36565716  1
  C  C47  1  0.39548276  0.04918325  0.43857942  1
  C  C48  1  0.44793121  0.01628665  0.26315144  1
  C  C49  1  0.07602741  0.42919067  0.48329976  1
  C  C50  1  0.19439142  0.38685891  0.48586560  1
  H  H51  1  0.03332732  0.41717976  0.35636909  1
  C  C52  1  0.02548131  0.42499896  0.39716456  1
  H  H53  1  0.48772167  0.46820898  0.46717255  1
  H  H54  1  0.32278028  0.22382212  0.49697957  1
  C  C55  1  0.49369621  0.04300231  0.49595665  1
  C  C56  1  0.44601406  0.48875922  0.54336910  1
  O  O57  1  0.23897040  0.26004365  0.71297982  1
  Zn  Zn58  1  0.16730606  0.31105699  0.67054610  1
  C  C59  1  0.47423589  0.05780209  0.65135974  1
  O  O60  1  0.10768409  0.19503081  0.65615912  1
  H  H61  1  0.42356461  0.07355094  0.63753649  1
  C  C62  1  0.24220227  0.30541997  0.56440853  1
  O  O63  1  0.28128253  0.24425128  0.58281472  1
  C  C64  1  0.01598090  0.11767075  0.69321311  1
  O  O65  1  0.15233311  0.46003835  0.68724351  1
  O  O66  1  0.12453047  0.08594425  0.71742981  1
  O  O67  1  0.20888321  0.36235735  0.59154264  1
  Zn  Zn68  1  0.22021269  0.13036250  0.73859976  1
  H  H69  1  0.37392108  0.49429766  0.63569168  1
  C  C70  1  0.08707282  0.13102664  0.68728178  1
  H  H71  1  0.01501703  0.39186373  0.54605442  1
  O  O72  1  0.34149527  0.09565637  0.67973557  1
  H  H73  1  0.03680998  0.19784454  0.52032075  1
  H  H74  1  0.13773154  0.43993686  0.55389623  1
  C  C75  1  0.35463941  0.06282416  0.72490947  1
  H  H76  1  0.02602936  0.44787712  0.64149031  1
  C  C77  1  0.01588405  0.40043080  0.50529736  1
  O  O78  1  0.34248473  0.39368182  0.69244911  1
  Zn  Zn79  1  0.31478491  0.24202547  0.66127452  1
  H  H80  1  0.45594772  0.26935793  0.63343349  1
  H  H81  1  0.40254745  0.43871607  0.53802779  1
  C  C82  1  0.13938485  0.47998061  0.73311447  1
  C  C83  1  0.44448717  0.46053624  0.73039261  1
  C  C84  1  0.37631140  0.41309684  0.73125182  1
  C  C85  1  0.14063466  0.44865399  0.51161459  1
  H  H86  1  0.04119825  0.25768220  0.61754840  1
  C  C87  1  0.23891673  0.32168180  0.50891008  1
  C  C88  1  0.41979374  0.02646117  0.74070058  1
  C  C89  1  0.47519925  0.02459751  0.70782404  1
  H  H90  1  0.18505454  0.01186181  0.63172375  1
  H  H91  1  0.41081555  0.14208801  0.50586525  1
  O  O92  1  0.15688498  0.42818264  0.77048470  1
  H  H93  1  0.46248065  0.40253784  0.80815148  1
  Zn  Zn94  1  0.25110783  0.36704504  0.76780521  1
  C  C95  1  0.47927200  0.45270928  0.77626669  1
  O  O96  1  0.35284571  0.38163246  0.77323650  1
  O  O97  1  0.31049813  0.05641562  0.75808662  1
  H  H98  1  0.02842928  0.01562523  0.75725745  1
  H  H99  1  0.23964579  0.89889770  0.19001271  1
  C  C100  1  0.31982507  0.79247996  0.17847915  1
  C  C101  1  0.14826843  0.74333567  0.19071359  1
  H  H102  1  0.42806334  0.84573098  0.14227749  1
  H  H103  1  0.10582082  0.52631280  0.12881432  1
  C  C104  1  0.20629125  0.75851092  0.16129852  1
  C  C105  1  0.40635189  0.67271637  0.15422035  1
  C  C106  1  0.11298368  0.65764172  0.17926904  1
  C  C107  1  0.34645607  0.71928862  0.14503749  1
  H  H108  1  0.41780341  0.84909365  0.04655705  1
  H  H109  1  0.42804929  0.52264464  0.03138137  1
  C  C110  1  0.43959447  0.69766668  0.20044905  1
  H  H111  1  0.29690545  0.61789501  0.03094534  1
  H  H112  1  0.06688604  0.64518367  0.19836142  1
  C  C113  1  0.25485327  0.84243798  0.16371456  1
  C  C114  1  0.32019504  0.82205508  0.02463467  1
  C  C115  1  0.30105628  0.70350035  0.09875259  1
  O  O116  1  0.33358565  0.64572223  0.04804696  1
  C  C117  1  0.23289643  0.69533407  0.12145965  1
  C  C118  1  0.26861720  0.87505075  0.10572938  1
  C  C119  1  0.29223382  0.80231873  0.07395463  1
  H  H120  1  0.20847072  0.56560334  0.07771008  1
  C  C121  1  0.13412431  0.59306040  0.13891946  1
  C  C122  1  0.19085911  0.61242069  0.11019474  1
  H  H123  1  0.41957906  0.61313979  0.12988409  1
  C  C124  1  0.32109565  0.91761715  0.00533837  1
  H  H125  1  0.12917009  0.79301918  0.22188586  1
  C  C126  1  0.46403601  0.86357123  0.06686944  1
  H  H127  1  0.48237501  0.65137170  0.21286025  1
  C  C128  1  0.26854189  0.97267614  0.08582845  1
  C  C129  1  0.34496578  0.72934473  0.00375113  1
  C  C130  1  0.47246965  0.85438940  0.12066477  1
  C  C131  1  0.29558400  0.99031955  0.03747452  1
  C  C132  1  0.47342741  0.54770583  0.05290373  1
  H  H133  1  0.33553677  0.87461863  0.24981227  1
  H  H134  1  0.49429344  0.67087452  0.00337832  1
  C  C135  1  0.41706272  0.77353425  0.23147834  1
  C  C136  1  0.35494951  0.81906172  0.22393385  1
  H  H137  1  0.06210345  0.50089381  0.24440109  1
  H  H138  1  0.01046069  0.95094470  0.45644524  1
  H  H139  1  0.00179790  0.70820610  0.46788274  1
  C  C140  1  0.16480323  0.56810851  0.43666491  1
  C  C141  1  0.42433449  0.98489914  0.40305554  1
  H  H142  1  0.30819312  0.62140198  0.37686082  1
  C  C143  1  0.48639966  0.94334897  0.41841862  1
  C  C144  1  0.14664739  0.80832088  0.33540846  1
  C  C145  1  0.21145975  0.72756999  0.45457798  1
  C  C146  1  0.39161258  0.83737687  0.36433425  1
  C  C147  1  0.11167468  0.87725376  0.42128943  1
  C  C148  1  0.06085215  0.80527401  0.42303274  1
  C  C149  1  0.10187913  0.64447839  0.31831575  1
  H  H150  1  0.17243512  0.96144220  0.36171640  1
  C  C151  1  0.19050407  0.65699283  0.41833718  1
  C  C152  1  0.01522949  0.86993876  0.34201912  1
  C  C153  1  0.09603370  0.74065038  0.34019738  1
  C  C154  1  0.03337669  0.77566652  0.37007480  1
  C  C155  1  0.39710070  0.94300869  0.35081434  1
  H  H156  1  0.23645750  0.79946970  0.44128423  1
  H  H157  1  0.06292777  0.58968255  0.32517478  1
  C  C158  1  0.41138399  0.63169388  0.38481031  1
  C  C159  1  0.13584141  0.90919324  0.47095829  1
  H  H160  1  0.41981101  0.55216398  0.38959345  1
  C  C161  1  0.34732671  0.67404197  0.37805044  1
  C  C162  1  0.03964880  0.76311370  0.46923955  1
  C  C163  1  0.20480984  0.70400682  0.27863355  1
  C  C164  1  0.33682723  0.77113143  0.36524769  1
  H  H165  1  0.47551771  0.56066767  0.31779550  1
  C  C166  1  0.13069054  0.90504482  0.36471231  1
  C  C167  1  0.15460823  0.63324940  0.28542654  1
  C  C168  1  0.45404192  0.96045607  0.30996542  1
  H  H169  1  0.28802425  0.80201986  0.35590522  1
  C  C170  1  0.06675263  0.93877019  0.34008646  1
  H  H171  1  0.19574071  0.66351163  0.37680572  1
  C  C172  1  0.20485095  0.79425737  0.30409001  1
  C  C173  1  0.45284219  0.79419402  0.37732328  1
  H  H174  1  0.24494677  0.84957858  0.29631240  1
  H  H175  1  0.44496498  0.79032024  0.26662116  1
  H  H176  1  0.16827544  0.56541922  0.26610695  1
  C  C177  1  0.46513950  0.69521744  0.38564413  1
  C  C178  1  0.15511902  0.55446969  0.49197843  1
  H  H179  1  0.34883916  0.97598416  0.34165715  1
  H  H180  1  0.36658554  0.50163505  0.28506963  1
  H  H181  1  0.17538733  0.96587525  0.47118358  1
  C  C182  1  0.46986816  0.52681645  0.27798007  1
  H  H183  1  0.24590325  0.68483452  0.25257398  1
  H  H184  1  0.29727142  0.60841110  0.67095219  1
  H  H185  1  0.04949537  0.77340239  0.55270862  1
  C  C186  1  0.32908500  0.75836074  0.69398290  1
  C  C187  1  0.11006617  0.87850019  0.51802481  1
  C  C188  1  0.09327504  0.56490769  0.74166274  1
  C  C189  1  0.41769809  0.54140299  0.64002636  1
  H  H190  1  0.17218664  0.61088824  0.56723056  1
  C  C191  1  0.12556349  0.74029418  0.64448537  1
  H  H192  1  0.36502727  0.90321683  0.70198964  1
  C  C193  1  0.06946200  0.63313105  0.70690814  1
  H  H194  1  0.12419118  0.57682082  0.63697044  1
  C  C195  1  0.45292707  0.71393799  0.65645903  1
  C  C196  1  0.09185564  0.63904855  0.64887559  1
  C  C197  1  0.09968521  0.91388493  0.64821987  1
  H  H198  1  0.28359887  0.78036147  0.71265414  1
  C  C199  1  0.37708251  0.83123864  0.68760716  1
  C  C200  1  0.21130713  0.86098572  0.62516255  1
  C  C201  1  0.18832024  0.76176112  0.62498234  1
  C  C202  1  0.44247652  0.80859713  0.67291122  1
  H  H203  1  0.22252043  0.70728122  0.60973722  1
  H  H204  1  0.43339257  0.94344586  0.56764230  1
  C  C205  1  0.17484350  0.62560929  0.52719419  1
  H  H206  1  0.25898368  0.87529033  0.60844964  1
  C  C207  1  0.40037706  0.64520522  0.65480206  1
  H  H208  1  0.12638677  0.90792996  0.55644032  1
  C  C209  1  0.03106972  0.65716347  0.61343889  1
  C  C210  1  0.08138580  0.81766219  0.65738875  1
  H  H211  1  0.06405136  0.97227208  0.65456382  1
  C  C212  1  0.33608440  0.66361970  0.67319455  1
  C  C213  1  0.16585564  0.93771085  0.63522076  1
  H  H214  1  0.22437137  0.76724825  0.53472593  1
  C  C215  1  0.02569403  0.70599256  0.72021604  1
  C  C216  1  0.06445810  0.80123626  0.51701459  1
  C  C217  1  0.45866050  0.54386258  0.58828455  1
  H  H218  1  0.06207381  0.54105509  0.55608388  1
  H  H219  1  0.03004265  0.97859060  0.55033984  1
  C  C220  1  0.01213787  0.77535518  0.67506748  1
  C  C221  1  0.48328612  0.93145223  0.57835969  1
  H  H222  1  0.48046053  0.86055034  0.67804566  1
  C  C223  1  0.02417278  0.59747967  0.56856984  1
  C  C224  1  0.46230003  0.51652688  0.68817759  1
  H  H225  1  0.49588140  0.82247242  0.51778525  1
  C  C226  1  0.20719482  0.71246188  0.50831298  1
  C  C227  1  0.49433613  0.50343737  0.50465502  1
  C  C228  1  0.01932394  0.63292075  0.80474416  1
  C  C229  1  0.06692031  0.56507998  0.79145761  1
  O  O230  1  0.37224759  0.70991474  0.96421271  1
  C  C231  1  0.48984546  0.94679148  0.80363186  1
  H  H232  1  0.49679050  0.91968018  0.84445774  1
  H  H233  1  0.07400185  0.51317475  0.82086889  1
  H  H234  1  0.33832680  0.93508527  0.96689249  1
  H  H235  1  0.00330624  0.63165391  0.84430683  1
  C  C236  1  0.43138732  0.99053457  0.79105464  1
  H  H237  1  0.39455972  0.99496158  0.82040955  1
  H  H238  1  0.70603394  0.43450843  0.06514188  1
  C  C239  1  0.61364148  0.26577414  0.14044675  1
  C  C240  1  0.59258333  0.17546587  0.12110440  1
  H  H241  1  0.79247882  0.37428500  0.00801296  1
  C  C242  1  0.74939751  0.39618434  0.08112329  1
  C  C243  1  0.72421984  0.14428538  0.06342744  1
  C  C244  1  0.52904180  0.15772239  0.10167489  1
  C  C245  1  0.82643303  0.31974364  0.21289636  1
  C  C246  1  0.90963211  0.08530656  0.17311779  1
  C  C247  1  0.75573971  0.38029949  0.13570739  1
  H  H248  1  0.66201380  0.28591920  0.15074770  1
  H  H249  1  0.62358777  0.11140839  0.12013302  1
  C  C250  1  0.94341021  0.34340343  0.19563584  1
  C  C251  1  0.56360414  0.33610047  0.13648626  1
  C  C252  1  0.92930635  0.27188275  0.14992048  1
  C  C253  1  0.80167577  0.36866952  0.04957833  1
  H  H254  1  0.90051690  0.30036590  0.04517959  1
  C  C255  1  0.83911704  0.20955091  0.20707757  1
  H  H256  1  0.71071173  0.39423884  0.16054250  1
  C  C257  1  0.57258514  0.43546517  0.16235870  1
  C  C258  1  0.81553551  0.34786051  0.15560917  1
  C  C259  1  0.51638961  0.46005143  0.19939566  1
  C  C260  1  0.74470935  0.12477132  0.11494098  1
  H  H261  1  0.97112016  0.24854849  0.12622966  1
  C  C262  1  0.86215610  0.33309617  0.07029932  1
  H  H263  1  0.77669344  0.17591170  0.13213323  1
  C  C264  1  0.89396949  0.18398802  0.17735327  1
  H  H265  1  0.51538947  0.08786527  0.08555162  1
  H  H266  1  0.73993943  0.21418808  0.04594769  1
  H  H267  1  0.73799598  0.02527686  0.17957606  1
  H  H268  1  0.95081126  0.06202098  0.14816626  1
  C  C269  1  0.72536510  0.03738165  0.13999017  1
  C  C270  1  0.87457036  0.01875336  0.20412374  1
  C  C271  1  0.68924707  0.07688574  0.03373430  1
  C  C272  1  0.50248665  0.02337744  0.22959606  1
  C  C273  1  0.87089659  0.31945156  0.12442159  1
  H  H274  1  0.61837860  0.44024404  0.18408334  1
  C  C275  1  0.81875234  0.04425859  0.23273998  1
  C  C276  1  0.80307424  0.14485080  0.23712001  1
  C  C277  1  0.89059013  0.37778674  0.22410523  1
  H  H278  1  0.78497754  0.33841069  0.23997293  1
  C  C279  1  0.96184338  0.48723659  0.27156808  1
  C  C280  1  0.90339661  0.43609792  0.26923043  1
  C  C281  1  0.96574387  0.39479347  0.41922351  1
  C  C282  1  0.94236172  0.17399155  0.48416151  1
  H  H283  1  0.91350150  0.36697393  0.49338383  1
  C  C284  1  0.87272676  0.16535299  0.48761726  1
  H  H285  1  0.84383368  0.14629713  0.45491592  1
  H  H286  1  0.92472006  0.36932391  0.39573893  1
  H  H287  1  0.68559020  0.04825823  0.43202991  1
  H  H288  1  0.96833027  0.16483330  0.44665005  1
  C  C289  1  0.68940405  0.04671492  0.47479665  1
  H  H290  1  0.60448131  0.14784667  0.48117258  1
  H  H291  1  0.76345137  0.17070340  0.26271024  1
  O  O292  1  0.79806142  0.44572742  0.30059467  1
  C  C293  1  0.96070284  0.38628246  0.47453941  1
  C  C294  1  0.85625431  0.46232640  0.31080947  1
  H  H295  1  0.99945189  0.10490686  0.26737880  1
  C  C296  1  0.99907595  0.04057971  0.29123020  1
  C  C297  1  0.61853450  0.29395341  0.65834417  1
  C  C298  1  0.84074628  0.18370793  0.53547348  1
  C  C299  1  0.98398341  0.19882002  0.52468427  1
  C  C300  1  0.99405971  0.05427482  0.73294434  1
  C  C301  1  0.65536995  0.12466990  0.55479659  1
  C  C302  1  0.95062095  0.22134537  0.57164828  1
  H  H303  1  0.78762268  0.17033835  0.54106854  1
  C  C304  1  0.80925570  0.08619383  0.72697893  1
  H  H305  1  0.71138047  0.07656028  0.62637047  1
  C  C306  1  0.94961818  0.34263387  0.63722654  1
  H  H307  1  0.65254965  0.35763639  0.66640406  1
  C  C308  1  0.70311423  0.07070235  0.58403721  1
  H  H309  1  0.67933536  0.17606339  0.69369104  1
  C  C310  1  0.97222561  0.16633025  0.66166997  1
  C  C311  1  0.98640187  0.24769970  0.62325167  1
  C  C312  1  0.88051489  0.32984357  0.64405515  1
  H  H313  1  0.78135906  0.39395616  0.64744671  1
  C  C314  1  0.88441036  0.20637405  0.57779834  1
  C  C315  1  0.90382155  0.16095180  0.67075757  1
  O  O316  1  0.76771947  0.12528370  0.70225826  1
  C  C317  1  0.55446314  0.31887567  0.64632954  1
  H  H318  1  0.54386007  0.39593949  0.64083076  1
  C  C319  1  0.63373767  0.19912589  0.67613698  1
  C  C320  1  0.83486846  0.40662402  0.64678340  1
  H  H321  1  0.80816076  0.20920833  0.64489359  1
  C  C322  1  0.86080312  0.22330762  0.63677157  1
  C  C323  1  0.88148917  0.10381997  0.71278000  1
  C  C324  1  0.58445520  0.12775004  0.66936887  1
  H  H325  1  0.62796546  0.18042317  0.57771328  1
  C  C326  1  0.97518958  0.43385038  0.64501223  1
  H  H327  1  0.64835034  0.00503133  0.69769050  1
  C  C328  1  0.92851785  0.05268429  0.74231035  1
  C  C329  1  0.51759040  0.15146749  0.65435917  1
  H  H330  1  0.52011295  0.06792008  0.53123681  1
  C  C331  1  0.59467588  0.01898588  0.68311648  1
  C  C332  1  0.50377601  0.24883777  0.64314551  1
  C  C333  1  0.74211750  0.00582521  0.55522181  1
  C  C334  1  0.86313543  0.49884310  0.65318092  1
  C  C335  1  0.64471067  0.10844220  0.50141188  1
  H  H336  1  0.91065797  0.01411582  0.77902816  1
  O  O337  1  0.79411378  0.03147447  0.76476717  1
  H  H338  1  0.67817427  0.08991268  0.99143004  1
  C  C339  1  0.52080904  0.88097218  0.03705398  1
  O  O340  1  0.71288357  0.74838442  0.20842927  1
  O  O341  1  0.76534037  0.61430368  0.18876686  1
  C  C342  1  0.69097958  0.79560987  0.09908043  1
  C  C343  1  0.57386514  0.65029937  0.05980266  1
  H  H344  1  0.78520212  0.58504638  0.10030329  1
  C  C345  1  0.73465306  0.75332285  0.01522080  1
  C  C346  1  0.65759112  0.87295760  0.13331332  1
  H  H347  1  0.53541043  0.83652125  0.19100102  1
  C  C348  1  0.69293223  0.81424468  0.04649793  1
  H  H349  1  0.66372371  0.86011210  0.17663968  1
  C  C350  1  0.72720773  0.71343819  0.11868622  1
  C  C351  1  0.73727710  0.69249979  0.17446734  1
  C  C352  1  0.58674576  0.86377926  0.11553972  1
  H  H353  1  0.63461083  0.61296323  0.12745754  1
  C  C354  1  0.58182884  0.88209751  0.06171698  1
  C  C355  1  0.76118416  0.65118060  0.08587400  1
  H  H356  1  0.79579593  0.62354448  0.00903676  1
  H  H357  1  0.60391877  0.71397742  0.04595506  1
  C  C358  1  0.76423168  0.66741707  0.03291085  1
  C  C359  1  0.58996176  0.59646453  0.10489204  1
  C  C360  1  0.53207190  0.85462875  0.14807000  1
  C  C361  1  0.64551088  0.89646644  0.03155419  1
  H  H362  1  0.88398570  0.93979667  0.20173992  1
  C  C363  1  0.55935370  0.97921404  0.24453087  1
  C  C364  1  0.51242721  0.62506547  0.03577048  1
  H  H365  1  0.60586576  0.98222158  0.21954261  1
  C  C366  1  0.67305017  0.99163818  0.05987723  1
  C  C367  1  0.68618784  0.97247295  0.11242597  1
  C  C368  1  0.55529599  0.51534627  0.12183210  1
  C  C369  1  0.52437342  0.50888153  0.24663045  1
  O  O370  1  0.63953192  0.52689575  0.24713630  1
  H  H371  1  0.56389003  0.93106241  0.47686588  1
  H  H372  1  0.55652872  0.83270967  0.39269410  1
  O  O373  1  0.68000270  0.88798883  0.27680362  1
  C  C374  1  0.62926608  0.87866512  0.30521500  1
  Zn  Zn375  1  0.65765506  0.66984849  0.35445480  1
  H  H376  1  0.99562120  0.71667545  0.37025489  1
  C  C377  1  0.89345330  0.83007084  0.33042640  1
  C  C378  1  0.51142594  0.91646828  0.32229415  1
  Zn  Zn379  1  0.74048152  0.55507474  0.26725305  1
  C  C380  1  0.56810135  0.92697970  0.29082096  1
  C  C381  1  0.73424608  0.69840477  0.44734122  1
  O  O382  1  0.76184098  0.74839204  0.41151354  1
  Zn  Zn383  1  0.82369636  0.65399333  0.36168497  1
  O  O384  1  0.83819879  0.86481207  0.31992696  1
  O  O385  1  0.69736429  0.63183413  0.43286075  1
  C  C386  1  0.95185827  0.89509136  0.32442008  1
  O  O387  1  0.89935245  0.74417575  0.34712494  1
  O  O388  1  0.58892369  0.56885091  0.31753899  1
  H  H389  1  0.90514166  0.90595357  0.41889112  1
  H  H390  1  0.77224470  0.89373727  0.43728775  1
  O  O391  1  0.62702710  0.82032441  0.34270489  1
  O  O392  1  0.74238863  0.65843384  0.31667968  1
  H  H393  1  0.51149211  0.66555695  0.40056638  1
  C  C394  1  0.90709908  0.93023279  0.45845303  1
  H  H395  1  0.96587191  0.54544450  0.30112157  1
  Zn  Zn396  1  0.75920827  0.78332757  0.28210503  1
  C  C397  1  0.50944003  0.86929333  0.37730962  1
  C  C398  1  0.78288677  0.90693803  0.47946071  1
  O  O399  1  0.87074666  0.51420809  0.35017953  1
  C  C400  1  0.58659061  0.54163331  0.27062738  1
  H  H401  1  0.79042070  0.98844029  0.25394015  1
  C  C402  1  0.94500512  0.98364453  0.29819298  1
  C  C403  1  0.96843193  0.94923414  0.48240092  1
  H  H404  1  0.89458757  0.99919502  0.28430600  1
  C  C405  1  0.52015937  0.96978027  0.46430904  1
  H  H406  1  0.58997310  0.55945019  0.48085228  1
  C  C407  1  0.85302478  0.93322664  0.49162736  1
  C  C408  1  0.78411033  0.78599364  0.66423911  1
  C  C409  1  0.73174996  0.68630514  0.59263223  1
  H  H410  1  0.92975521  0.97474950  0.60938882  1
  C  C411  1  0.51651522  0.57577471  0.69351650  1
  O  O412  1  0.76612604  0.72049304  0.69522592  1
  C  C413  1  0.92007843  0.67469253  0.55209259  1
  H  H414  1  0.88468903  0.78769850  0.60258712  1
  C  C415  1  0.76232804  0.77209289  0.60948488  1
  C  C416  1  0.56236781  0.60796908  0.55823517  1
  C  C417  1  0.72554512  0.66220674  0.54166955  1
  H  H418  1  0.56115602  0.69952213  0.65016960  1
  H  H419  1  0.61575281  0.79733683  0.53945437  1
  O  O420  1  0.80403951  0.86465818  0.68048059  1
  C  C421  1  0.57685760  0.95520202  0.63485273  1
  H  H422  1  0.71868879  0.62714906  0.61962121  1
  C  C423  1  0.77538922  0.84015490  0.56892639  1
  C  C424  1  0.92559898  0.73594367  0.59510163  1
  H  H425  1  0.66567355  0.87271654  0.61677160  1
  C  C426  1  0.97975273  0.96877632  0.53519909  1
  H  H427  1  0.83183886  0.55557462  0.66171002  1
  C  C428  1  0.96856153  0.60255591  0.53937428  1
  C  C429  1  0.61428308  0.88513225  0.60727680  1
  C  C430  1  0.86163660  0.95052598  0.54652828  1
  C  C431  1  0.79995189  0.94354605  0.57992529  1
  C  C432  1  0.51300630  0.60561891  0.59659654  1
  H  H433  1  0.60463060  0.65833672  0.56639712  1
  O  O434  1  0.62785102  0.69679757  0.71108081  1
  H  H435  1  0.95125470  0.58330569  0.66206177  1
  H  H436  1  0.98008313  0.83459766  0.68556563  1
  C  C437  1  0.58462107  0.84024179  0.56437866  1
  C  C438  1  0.98356919  0.72443956  0.62683656  1
  C  C439  1  0.51240474  0.98128665  0.61886007  1
  C  C440  1  0.55902667  0.56681823  0.73656695  1
  H  H441  1  0.70183933  0.59247705  0.53251531  1
  H  H442  1  0.81176603  0.96480419  0.61999963  1
  C  C443  1  0.76629726  0.82107735  0.51622113  1
  C  C444  1  0.92324942  0.96964491  0.56805334  1
  H  H445  1  0.87605295  0.68160005  0.52601674  1
  C  C446  1  0.74617239  0.72831597  0.50198281  1
  C  C447  1  0.93162476  0.51398627  0.65358405  1
  C  C448  1  0.51636326  0.65677009  0.65022276  1
  C  C449  1  0.51830620  0.85766357  0.55167581  1
  C  C450  1  0.61484132  0.63693630  0.74577156  1
  C  C451  1  0.55195203  0.55784843  0.51142374  1
  C  C452  1  0.53930802  0.99322397  0.72145686  1
  C  C453  1  0.73725066  0.99125509  0.50171376  1
  H  H454  1  0.96144332  0.55148025  0.50475889  1
  O  O455  1  0.93397499  0.76676968  0.83767239  1
  O  O456  1  0.61298650  0.87541705  0.83578534  1
  C  C457  1  0.95285122  0.77644084  0.79281498  1
  C  C458  1  0.60758601  0.90866426  0.78909831  1
  C  C459  1  0.74952196  0.77686133  0.96091590  1
  O  O460  1  0.72973343  0.85559263  0.94178552  1
  O  O461  1  0.78681740  0.72066965  0.93430854  1
  H  H462  1  0.63959465  0.90635649  0.98634524  1
  O  O463  1  0.77653083  0.81822135  0.81555060  1
  O  O464  1  0.64617077  0.64442376  0.78713712  1
  Zn  Zn465  1  0.83544183  0.75941232  0.86674583  1
  Zn  Zn466  1  0.71200520  0.87921519  0.86112427  1
  Zn  Zn467  1  0.83575090  0.89063441  0.76231581  1
  Zn  Zn468  1  0.71302711  0.76924102  0.76604201  1
  O  O469  1  0.93968625  0.84807132  0.76424563  1
  C  C470  1  0.99953174  0.70603643  0.77096813  1
  O  O471  1  0.65677959  0.91455056  0.76138895  1
  C  C472  1  0.54371383  0.95381351  0.77090684  1
  C  C473  1  0.53613855  0.51032312  0.77770609  1
  H  H474  1  0.52004750  0.89709422  0.99683938  1
  H  H475  1  0.56567459  0.52057927  0.81257902  1
