# generated using pymatgen
data_CuH9C16NO5
_symmetry_space_group_name_H-M   'P 1'
_cell_length_a   17.53090062
_cell_length_b   21.75034709
_cell_length_c   18.56090892
_cell_angle_alpha   90.00000000
_cell_angle_beta   90.00000000
_cell_angle_gamma   90.00000000
_symmetry_Int_Tables_number   1
_chemical_formula_structural   CuH9C16NO5
_chemical_formula_sum   'Cu18 H162 C288 N18 O90'
_cell_volume   7077.33347222
_cell_formula_units_Z   18
loop_
 _symmetry_equiv_pos_site_id
 _symmetry_equiv_pos_as_xyz
  1  'x, y, z'
loop_
 _atom_site_type_symbol
 _atom_site_label
 _atom_site_symmetry_multiplicity
 _atom_site_fract_x
 _atom_site_fract_y
 _atom_site_fract_z
 _atom_site_occupancy
  C  C0  1  0.40761580  0.43177597  0.17678649  1
  N  N1  1  0.35387575  0.15361819  0.10605512  1
  C  C2  1  0.28630710  0.05934038  0.14041817  1
  O  O3  1  0.20751212  0.33739961  0.14278554  1
  O  O4  1  0.08632996  0.19187716  0.02856105  1
  C  C5  1  0.36424831  0.21535912  0.09563366  1
  H  H6  1  0.10171376  0.01603581  0.09990254  1
  C  C7  1  0.21739321  0.14503303  0.08176740  1
  C  C8  1  0.28511134  0.12077386  0.11122873  1
  O  O9  1  0.46238148  0.41459398  0.14476287  1
  H  H10  1  0.41756855  0.10593443  0.18079832  1
  H  H11  1  0.46452611  0.31939560  0.05821726  1
  C  C12  1  0.48924000  0.16940843  0.11024227  1
  C  C13  1  0.08245807  0.13072511  0.04605793  1
  C  C14  1  0.22074900  0.02447875  0.13865002  1
  H  H15  1  0.26191947  0.45394174  0.06549188  1
  N  N16  1  0.08044657  0.34278222  0.11575899  1
  H  H17  1  0.42477642  0.07865294  0.08594969  1
  C  C18  1  0.15413339  0.04503751  0.10711409  1
  C  C19  1  0.41423084  0.47929205  0.23458827  1
  C  C20  1  0.05825179  0.32214294  0.17974158  1
  C  C21  1  0.15508510  0.10570604  0.08192132  1
  O  O22  1  0.33965010  0.40886109  0.16470760  1
  H  H23  1  0.33906166  0.03724449  0.16045375  1
  C  C24  1  0.15219819  0.35516397  0.10671021  1
  C  C25  1  0.44851772  0.22359619  0.09113538  1
  Cu  Cu26  1  0.32312083  0.33170924  0.12891209  1
  C  C27  1  0.42335476  0.11923460  0.12152467  1
  O  O28  1  0.02607936  0.10352010  0.03218274  1
  O  O29  1  0.31581322  0.25617057  0.08673179  1
  H  H30  1  0.21180053  0.19192348  0.05663726  1
  C  C31  1  0.16149207  0.38850772  0.03475581  1
  C  C32  1  0.49256600  0.27818275  0.07553601  1
  C  C33  1  0.14270041  0.45100716  0.01874512  1
  H  H34  1  0.13706346  0.38430210  0.23296039  1
  H  H35  1  0.02616209  0.48334491  0.00607461  1
  H  H36  1  0.06390681  0.19133401  0.23547667  1
  C  C37  1  0.09386739  0.34948944  0.24067974  1
  H  H38  1  0.00935381  0.41379772  0.11264535  1
  C  C39  1  0.08834809  0.49391272  0.00005473  1
  C  C40  1  0.05915529  0.08937396  0.24927799  1
  C  C41  1  0.22776330  0.43633189  0.02014337  1
  C  C42  1  0.25824807  0.07911275  0.47122460  1
  H  H43  1  0.37865584  0.19426449  0.42389432  1
  C  C44  1  0.32258606  0.32188072  0.35488095  1
  C  C45  1  0.00241031  0.10412831  0.45847302  1
  O  O46  1  0.13493369  0.32016990  0.42633389  1
  C  C47  1  0.03142477  0.27616146  0.31650970  1
  H  H48  1  0.46763038  0.18221210  0.31655430  1
  O  O49  1  0.16631717  0.39657006  0.35595001  1
  C  C50  1  0.17751930  0.15027992  0.26006901  1
  C  C51  1  0.08353274  0.32291002  0.30814330  1
  C  C52  1  0.33163637  0.15979196  0.43837114  1
  H  H53  1  0.45743855  0.06031493  0.46152109  1
  O  O54  1  0.26713652  0.28344503  0.35832470  1
  Cu  Cu55  1  0.23298636  0.43508861  0.41929848  1
  H  H56  1  0.40159334  0.45312659  0.38654357  1
  C  C57  1  0.13093915  0.34699462  0.36621005  1
  H  H58  1  0.37192235  0.00063997  0.27387468  1
  C  C59  1  0.39142769  0.40391547  0.37125240  1
  C  C60  1  0.41150384  0.09585118  0.28858273  1
  H  H61  1  0.09933090  0.04247227  0.44771739  1
  C  C62  1  0.29999728  0.10387597  0.28545782  1
  N  N63  1  0.26246908  0.18162084  0.45249188  1
  C  C64  1  0.21148978  0.13450213  0.46379066  1
  C  C65  1  0.22038179  0.09851831  0.28163834  1
  C  C66  1  0.39659305  0.31247222  0.31763698  1
  C  C67  1  0.24199913  0.01841885  0.49770497  1
  C  C68  1  0.44677137  0.36345937  0.33345320  1
  C  C69  1  0.42789119  0.26656419  0.27253677  1
  N  N70  1  0.32408342  0.38032273  0.38292372  1
  C  C71  1  0.33732247  0.09490270  0.45090454  1
  C  C72  1  0.17098480  0.03835714  0.29440761  1
  C  C73  1  0.42372933  0.03177521  0.27933429  1
  C  C74  1  0.39684555  0.04898390  0.46153529  1
  N  N75  1  0.35200372  0.13961122  0.28076561  1
  C  C76  1  0.09312411  0.03401163  0.26730204  1
  Cu  Cu77  1  0.20956303  0.26618922  0.44013771  1
  H  H78  1  0.02275147  0.25320170  0.36774734  1
  C  C79  1  0.47623568  0.13442717  0.30084579  1
  H  H80  1  0.20751281  0.19270514  0.26034693  1
  C  C81  1  0.49864268  0.01029491  0.26942390  1
  C  C82  1  0.08026839  0.08880934  0.45821187  1
  C  C83  1  0.12802221  0.14032170  0.46601091  1
  H  H84  1  0.29347613  0.47373588  0.25438689  1
  H  H85  1  0.26771091  0.01001904  0.36169622  1
  C  C86  1  0.34730274  0.49742739  0.26911580  1
  C  C87  1  0.49467836  0.46341809  0.48290521  1
  C  C88  1  0.07005735  0.19309636  0.46909587  1
  C  C89  1  0.09916573  0.14707627  0.25065035  1
  H  H90  1  0.39437299  0.22397695  0.25958377  1
  C  C91  1  0.03638738  0.49794121  0.73656107  1
  H  H92  1  0.14548161  0.07557561  0.69216120  1
  O  O93  1  0.20329216  0.26830840  0.64097879  1
  C  C94  1  0.37407448  0.47947635  0.53734235  1
  O  O95  1  0.05929160  0.48757294  0.67295678  1
  O  O96  1  0.25682505  0.42346339  0.51825775  1
  O  O97  1  0.31065573  0.09118507  0.66757417  1
  C  C98  1  0.25224613  0.28153976  0.67860245  1
  C  C99  1  0.29405085  0.46189833  0.55371822  1
  C  C100  1  0.42407114  0.43929215  0.50831898  1
  C  C101  1  0.31587078  0.30035406  0.72456121  1
  C  C102  1  0.14105491  0.04579754  0.74260817  1
  C  C103  1  0.28109122  0.04519744  0.68417572  1
  Cu  Cu104  1  0.16160156  0.48814449  0.63903145  1
  O  O105  1  0.26062424  0.49418872  0.60044277  1
  H  H106  1  0.18598272  0.00328956  0.51778817  1
  H  H107  1  0.40950596  0.39102908  0.50271329  1
  C  C108  1  0.18358796  0.34066336  0.85907660  1
  C  C109  1  0.43495371  0.45805097  0.99567032  1
  H  H110  1  0.25913940  0.43533440  0.96733382  1
  C  C111  1  0.28345858  0.07812469  0.88588415  1
  C  C112  1  0.21098726  0.05757038  0.86821241  1
  O  O113  1  0.32186401  0.05007658  0.93471273  1
  O  O114  1  0.35801471  0.36374719  0.95423198  1
  H  H115  1  0.21770275  0.12013688  0.77757022  1
  C  C116  1  0.14228338  0.39690666  0.86141692  1
  H  H117  1  0.21978210  0.20436195  0.87223389  1
  N  N118  1  0.10200793  0.18477058  0.84702207  1
  C  C119  1  0.05183692  0.03946203  0.76585768  1
  H  H120  1  0.14584693  0.35766908  0.99005342  1
  H  H121  1  0.44296361  0.48041647  0.83633235  1
  C  C122  1  0.17269919  0.22010586  0.83683115  1
  C  C123  1  0.09883411  0.12692833  0.82028657  1
  C  C124  1  0.03312538  0.09318106  0.80810645  1
  C  C125  1  0.17544624  0.09182964  0.80425876  1
  H  H126  1  0.16660698  0.44545610  0.86056474  1
  C  C127  1  0.16949156  0.01455505  0.90531723  1
  C  C128  1  0.39571856  0.40602841  0.97336603  1
  O  O129  1  0.31331973  0.12582841  0.85320713  1
  H  H130  1  0.18060370  0.21383015  0.77622658  1
  Cu  Cu131  1  0.41316245  0.13181510  0.84271242  1
  C  C132  1  0.06199957  0.27945977  0.86755994  1
  C  C133  1  0.03191425  0.21260362  0.86624980  1
  C  C134  1  0.06118596  0.39014600  0.87456709  1
  C  C135  1  0.14162271  0.28548799  0.85826307  1
  H  H136  1  0.24699154  0.34178123  0.85323033  1
  C  C137  1  0.02069195  0.33443880  0.87794803  1
  H  H138  1  0.11461870  0.01452501  0.87753403  1
  H  H139  1  0.49334181  0.36572040  0.79092440  1
  H  H140  1  0.04838996  0.19903635  0.98835496  1
  H  H141  1  0.02581896  0.42989160  0.87132655  1
  O  O142  1  0.36631310  0.31711872  0.75646633  1
  H  H143  1  0.20504372  0.68537418  0.02055209  1
  C  C144  1  0.20627932  0.69532462  0.14400065  1
  C  C145  1  0.46162362  0.66618622  0.02460219  1
  C  C146  1  0.26112724  0.61100575  0.07844168  1
  H  H147  1  0.31851129  0.54092655  0.13961117  1
  C  C148  1  0.22135460  0.66650963  0.07563800  1
  H  H149  1  0.04906593  0.70048755  0.20233563  1
  C  C150  1  0.28753185  0.58513849  0.14282264  1
  C  C151  1  0.48848958  0.92640551  0.04491575  1
  H  H152  1  0.06748692  0.82631010  0.18447994  1
  O  O153  1  0.18316675  0.92191765  0.15740240  1
  C  C154  1  0.23848094  0.66934787  0.21317669  1
  C  C155  1  0.05851950  0.72063048  0.02901242  1
  H  H156  1  0.14110150  0.78919395  0.13508987  1
  C  C157  1  0.23190053  0.95886195  0.16858180  1
  C  C158  1  0.17027685  0.75024988  0.16601969  1
  C  C159  1  0.28284392  0.61530473  0.21063555  1
  O  O160  1  0.37422134  0.88938378  0.09251930  1
  C  C161  1  0.40770535  0.93434795  0.06428853  1
  O  O162  1  0.29163011  0.94192169  0.20760527  1
  H  H163  1  0.10046777  0.68290127  0.03144041  1
  H  H164  1  0.49951020  0.83087516  0.07873793  1
  H  H165  1  0.27656821  0.58644644  0.02631935  1
  Cu  Cu166  1  0.37287176  0.87913453  0.18930595  1
  C  C167  1  0.46506704  0.64182506  0.08321260  1
  H  H168  1  0.48271843  0.69717995  0.22451752  1
  N  N169  1  0.17437133  0.75289814  0.23801585  1
  H  H170  1  0.44785635  0.55131777  0.03577367  1
  C  C171  1  0.08106074  0.83734196  0.23926788  1
  O  O172  1  0.33350825  0.79608956  0.21530819  1
  O  O173  1  0.37369783  0.98469490  0.05152510  1
  H  H174  1  0.27968188  0.78244926  0.21900578  1
  C  C175  1  0.47333270  0.50734745  0.01874962  1
  C  C176  1  0.01219853  0.73646062  0.09135353  1
  O  O177  1  0.04138586  0.56456361  0.15917236  1
  C  C178  1  0.00716009  0.72260908  0.16644321  1
  O  O179  1  0.47254579  0.61229380  0.14909987  1
  C  C180  1  0.02015615  0.59023969  0.20335996  1
  H  H181  1  0.35796313  0.76777739  0.24643816  1
  Cu  Cu182  1  0.28190855  0.99112568  0.00119809  1
  O  O183  1  0.17752912  0.83442263  0.48425873  1
  C  C184  1  0.00126229  0.74834538  0.38597736  1
  C  C185  1  0.35436429  0.53686766  0.32800710  1
  C  C186  1  0.28524858  0.54697742  0.37392375  1
  C  C187  1  0.41937764  0.56693584  0.34884884  1
  O  O188  1  0.22784537  0.69645312  0.33855589  1
  H  H189  1  0.02615181  0.69361587  0.29008690  1
  C  C190  1  0.48631216  0.55283856  0.30862906  1
  C  C191  1  0.48369419  0.50507683  0.25434042  1
  H  H192  1  0.19269572  0.94888378  0.34393581  1
  H  H193  1  0.47351837  0.86955555  0.29917667  1
  C  C194  1  0.12569026  0.87408350  0.46049703  1
  C  C195  1  0.05962871  0.71008838  0.42714055  1
  H  H196  1  0.19623340  0.78855569  0.38063030  1
  C  C197  1  0.13989729  0.80412136  0.27481787  1
  H  H198  1  0.41771538  0.59526927  0.39869879  1
  O  O199  1  0.28317231  0.59982129  0.40058584  1
  C  C200  1  0.21362987  0.70470594  0.27425531  1
  C  C201  1  0.04591097  0.88682140  0.27380362  1
  C  C202  1  0.11142454  0.86104816  0.38188423  1
  H  H203  1  0.39730672  0.80013594  0.45402436  1
  H  H204  1  0.31209958  0.59680287  0.25955560  1
  C  C205  1  0.05924635  0.89984611  0.34688668  1
  O  O206  1  0.08773173  0.66701422  0.39409089  1
  H  H207  1  0.42350311  0.95358839  0.48707898  1
  Cu  Cu208  1  0.18888492  0.63787224  0.40445307  1
  H  H209  1  0.03275163  0.93727671  0.37445370  1
  C  C210  1  0.15277791  0.81376593  0.34847415  1
  O  O211  1  0.42998144  0.74658772  0.36314687  1
  C  C212  1  0.42882643  0.83415868  0.48517265  1
  C  C213  1  0.48926786  0.77340196  0.35339621  1
  H  H214  1  0.06090001  0.99270538  0.27422731  1
  C  C215  1  0.21239322  0.99565431  0.33287304  1
  O  O216  1  0.22963398  0.51135510  0.36880971  1
  C  C217  1  0.03755613  0.54078023  0.46538562  1
  C  C218  1  0.29998911  0.97350000  0.49604700  1
  C  C219  1  0.49775594  0.85268766  0.45326809  1
  O  O220  1  0.07605877  0.72429637  0.48987977  1
  O  O221  1  0.09521771  0.91284737  0.49390122  1
  C  C222  1  0.37727340  0.98850346  0.47987908  1
  O  O223  1  0.09702779  0.54678133  0.48875369  1
  O  O224  1  0.44842198  0.89822782  0.26016454  1
  O  O225  1  0.44524917  0.65789842  0.58417631  1
  O  O226  1  0.30220340  0.84748108  0.63588407  1
  H  H227  1  0.42839608  0.91906089  0.64352117  1
  H  H228  1  0.10019330  0.62819446  0.67152464  1
  H  H229  1  0.33995471  0.60838288  0.69928393  1
  H  H230  1  0.27987485  0.94806037  0.68356552  1
  C  C231  1  0.48076833  0.62866045  0.53807457  1
  C  C232  1  0.22940425  0.65304141  0.60956374  1
  C  C233  1  0.46241786  0.56378232  0.52733697  1
  C  C234  1  0.40469374  0.85401052  0.55447827  1
  H  H235  1  0.36099797  0.56770272  0.59120696  1
  C  C236  1  0.21721555  0.61874738  0.67805435  1
  O  O237  1  0.16846988  0.68168845  0.59319410  1
  C  C238  1  0.39449630  0.53884639  0.55546046  1
  O  O239  1  0.29210824  0.65618488  0.57858815  1
  C  C240  1  0.33131275  0.82580057  0.58377552  1
  Cu  Cu241  1  0.16967136  0.75652174  0.53555988  1
  C  C242  1  0.17554447  0.98333154  0.73575751  1
  Cu  Cu243  1  0.37105293  0.71483585  0.56908911  1
  C  C244  1  0.14461779  0.60957630  0.70334794  1
  C  C245  1  0.44422134  0.89892074  0.59164403  1
  O  O246  1  0.30400090  0.77629806  0.55228191  1
  C  C247  1  0.28170519  0.59985824  0.71598403  1
  C  C248  1  0.24488669  0.98680096  0.70279582  1
  H  H249  1  0.28650077  0.92666637  0.51049975  1
  O  O250  1  0.16060586  0.65305471  0.92328201  1
  H  H251  1  0.46311898  0.55318266  0.88429037  1
  O  O252  1  0.32434771  0.52127955  0.88046634  1
  C  C253  1  0.02259458  0.55374635  0.84247814  1
  C  C254  1  0.33225972  0.54702152  0.82639391  1
  H  H255  1  0.04123492  0.58755487  0.88328351  1
  C  C256  1  0.11694204  0.55101663  0.97491717  1
  O  O257  1  0.40774964  0.55888533  0.79546400  1
  C  C258  1  0.13523819  0.57148449  0.76608266  1
  C  C259  1  0.26853440  0.56890088  0.78041414  1
  N  N260  1  0.05925388  0.54634363  0.77998733  1
  C  C261  1  0.14009954  0.59993082  0.95147446  1
  H  H262  1  0.08281776  0.74736148  0.91851537  1
  H  H263  1  0.29785084  0.65419072  0.88246763  1
  H  H264  1  0.16460910  0.63967321  0.86839343  1
  C  C265  1  0.46345392  0.69558790  0.95450599  1
  C  C266  1  0.19591342  0.55362453  0.80725384  1
  C  C267  1  0.46677737  0.52737854  0.82860785  1
  C  C268  1  0.40036000  0.69375636  0.91651601  1
  C  C269  1  0.01432695  0.98490210  0.77092942  1
  H  H270  1  0.18871095  0.53084867  0.85769365  1
  C  C271  1  0.33766477  0.69328416  0.87601816  1
  H  H272  1  0.33072837  0.72356969  0.82814019  1
  C  C273  1  0.04272207  0.75356357  0.96567010  1
  O  O274  1  0.18881112  0.98601271  0.95966838  1
  H  H275  1  0.14651180  0.94010648  0.75155424  1
  O  O276  1  0.86984143  0.20892772  0.22287931  1
  H  H277  1  0.53438487  0.48921902  0.22417759  1
  C  C278  1  0.57111105  0.27497481  0.08500969  1
  C  C279  1  0.61154601  0.21962059  0.10150850  1
  H  H280  1  0.95598619  0.26884024  0.14524965  1
  H  H281  1  0.87930530  0.48394592  0.04235252  1
  C  C282  1  0.56873604  0.16451192  0.11528313  1
  H  H283  1  0.60592480  0.31795225  0.07983058  1
  H  H284  1  0.67749816  0.22277202  0.10557042  1
  O  O285  1  0.96348933  0.43452115  0.10079675  1
  H  H286  1  0.59718172  0.12121818  0.13259728  1
  H  H287  1  0.97453698  0.47168643  0.11755738  1
  H  H288  1  0.52114585  0.24394154  0.20768968  1
  H  H289  1  0.50287042  0.02037519  0.01939909  1
  C  C290  1  0.99601017  0.27936654  0.18921722  1
  C  C291  1  0.50086916  0.27749152  0.24428283  1
  H  H292  1  0.60735920  0.32919774  0.24166816  1
  H  H293  1  0.99915264  0.08860691  0.23791638  1
  O  O294  1  0.67347196  0.47039028  0.01650352  1
  H  H295  1  0.78286099  0.45829802  0.41183754  1
  C  C296  1  0.78648848  0.33917019  0.45289974  1
  C  C297  1  0.76559974  0.30283127  0.31716761  1
  C  C298  1  0.61785463  0.44468186  0.45643806  1
  O  O299  1  0.68259411  0.13511673  0.27292894  1
  C  C300  1  0.80207358  0.05313286  0.43750193  1
  O  O301  1  0.65569956  0.44964410  0.39520549  1
  C  C302  1  0.67522308  0.02884671  0.41436226  1
  C  C303  1  0.69447152  0.13542798  0.45208067  1
  Cu  Cu304  1  0.82475058  0.19022756  0.39715211  1
  H  H305  1  0.61192470  0.03794374  0.41517385  1
  O  O306  1  0.85825656  0.08497632  0.45570934  1
  O  O307  1  0.62586671  0.15143120  0.44568602  1
  C  C308  1  0.61716294  0.15436000  0.29315374  1
  C  C309  1  0.77998367  0.33168093  0.38930321  1
  C  C310  1  0.55004409  0.11347594  0.28610107  1
  Cu  Cu311  1  0.59088301  0.22333124  0.42083420  1
  O  O312  1  0.91148050  0.20238859  0.33558857  1
  H  H313  1  0.81728092  0.00557042  0.41801013  1
  O  O314  1  0.76692914  0.23506008  0.32627588  1
  C  C315  1  0.72671846  0.07317538  0.43631027  1
  O  O316  1  0.74368540  0.17587527  0.46225638  1
  C  C317  1  0.91777166  0.22000047  0.27273158  1
  O  O318  1  0.60578279  0.20596551  0.31868794  1
  O  O319  1  0.95353029  0.00752466  0.43036864  1
  C  C320  1  0.94157066  0.05840561  0.44579067  1
  H  H321  1  0.56524341  0.40052806  0.34596562  1
  C  C322  1  0.73160808  0.48519928  0.42132845  1
  C  C323  1  0.55042617  0.32643009  0.26387862  1
  O  O324  1  0.75903892  0.32305596  0.25890357  1
  N  N325  1  0.54850266  0.42300304  0.46649375  1
  C  C326  1  0.98315396  0.25845830  0.25855815  1
  C  C327  1  0.56040794  0.05086568  0.27296404  1
  C  C328  1  0.52718348  0.37055279  0.31548966  1
  H  H329  1  0.93711291  0.19702281  0.46972029  1
  C  C330  1  0.99228093  0.17099455  0.47020944  1
  H  H331  1  0.61532784  0.03423218  0.26277530  1
  Cu  Cu332  1  0.77491380  0.17132083  0.25435438  1
  H  H333  1  0.66770195  0.40031186  0.71990345  1
  H  H334  1  0.60613949  0.32908492  0.60206149  1
  C  C335  1  0.74329035  0.13649951  0.72836670  1
  H  H336  1  0.50727850  0.14389893  0.59937152  1
  H  H337  1  0.75888439  0.16651838  0.62144475  1
  C  C338  1  0.54489672  0.21807183  0.56630642  1
  C  C339  1  0.58910534  0.29906270  0.64795514  1
  H  H340  1  0.78935401  0.42969732  0.57313027  1
  C  C341  1  0.62813117  0.48211175  0.58927672  1
  C  C342  1  0.59273157  0.32156800  0.71868018  1
  C  C343  1  0.56418384  0.23654255  0.63903877  1
  C  C344  1  0.54863075  0.19986071  0.69990872  1
  C  C345  1  0.78615636  0.28182844  0.57360885  1
  C  C346  1  0.77351933  0.36003590  0.65788731  1
  O  O347  1  0.73262899  0.05430296  0.64843592  1
  N  N348  1  0.61483826  0.38353718  0.73788404  1
  C  C349  1  0.76217242  0.24487414  0.69303444  1
  H  H350  1  0.52614713  0.15211398  0.69824458  1
  N  N351  1  0.77693717  0.29505821  0.64242894  1
  H  H352  1  0.57752459  0.45528277  0.60660306  1
  C  C353  1  0.78734291  0.38312788  0.58735135  1
  H  H354  1  0.78694319  0.23363055  0.55129383  1
  C  C355  1  0.73457783  0.07110317  0.71160144  1
  C  C356  1  0.75608069  0.18214599  0.67718732  1
  O  O357  1  0.75948595  0.38615573  0.71665578  1
  H  H358  1  0.92253165  0.38715486  0.72035795  1
  O  O359  1  0.51554014  0.16041891  0.55193986  1
  C  C360  1  0.79580326  0.33838082  0.53429149  1
  C  C361  1  0.65649655  0.47707406  0.51747895  1
  O  O362  1  0.56722855  0.24596477  0.51263350  1
  H  H363  1  0.97474711  0.11061684  0.82184250  1
  H  H364  1  0.72405756  0.44421927  0.79454947  1
  H  H365  1  0.59058581  0.30303825  0.83580790  1
  H  H366  1  0.92092743  0.01550312  0.89485561  1
  C  C367  1  0.87606231  0.42312422  0.82615520  1
  C  C368  1  0.60540978  0.47813991  0.80002924  1
  C  C369  1  0.85850253  0.44930790  0.88942164  1
  Cu  Cu370  1  0.61621664  0.16053825  0.96405466  1
  H  H371  1  0.58706904  0.45761703  0.92422729  1
  C  C372  1  0.73641042  0.21596895  0.81539781  1
  H  H373  1  0.95860218  0.33185181  0.88706178  1
  C  C374  1  0.73395489  0.15361165  0.80038768  1
  O  O375  1  0.73859203  0.28866146  0.90909539  1
  O  O376  1  0.97041380  0.19534818  0.87892073  1
  C  C377  1  0.59333199  0.45181079  0.98286404  1
  O  O378  1  0.71161247  0.19652741  0.94329650  1
  H  H379  1  0.81078493  0.43426786  0.92529296  1
  O  O380  1  0.55685548  0.20780078  0.89730720  1
  C  C381  1  0.72489868  0.23619132  0.89316020  1
  H  H382  1  0.56584628  0.40845116  0.99870131  1
  H  H383  1  0.72546457  0.11865597  0.84286185  1
  C  C384  1  0.91982596  0.42111875  0.76578706  1
  H  H385  1  0.76023940  0.31360137  0.77833421  1
  C  C386  1  0.57745061  0.41274430  0.79474539  1
  C  C387  1  0.97435199  0.47274878  0.77840046  1
  C  C388  1  0.54390509  0.18688130  0.83450175  1
  C  C389  1  0.68646846  0.48625249  0.79787727  1
  C  C390  1  0.58396589  0.28417580  0.78001231  1
  O  O391  1  0.52238620  0.39099110  0.83298525  1
  C  C392  1  0.75164189  0.26368177  0.76447593  1
  O  O393  1  0.51581687  0.13509660  0.82356552  1
  O  O394  1  0.72583892  0.03061639  0.76221518  1
  C  C395  1  0.55847849  0.22353616  0.76851402  1
  H  H396  1  0.79121877  0.48581222  0.98825484  1
  O  O397  1  0.60202065  0.08366266  0.99564150  1
  C  C398  1  0.64604793  0.03212202  0.98619634  1
  O  O399  1  0.70718680  0.03618286  0.95923793  1
  C  C400  1  0.72352918  0.55560992  0.09279124  1
  C  C401  1  0.66402095  0.75519335  0.19477074  1
  C  C402  1  0.64883805  0.92035308  0.01457410  1
  O  O403  1  0.98590723  0.92288537  0.16985522  1
  H  H404  1  0.91744784  0.59972610  0.08931906  1
  N  N405  1  0.63877494  0.80660831  0.02831941  1
  C  C406  1  0.60580935  0.86907644  0.03973892  1
  C  C407  1  0.60682530  0.97463890  0.00899562  1
  C  C408  1  0.75219857  0.63990308  0.17861049  1
  C  C409  1  0.53521823  0.72172577  0.23634089  1
  C  C410  1  0.92554429  0.80369241  0.01455315  1
  C  C411  1  0.70353078  0.59688693  0.14772167  1
  C  C412  1  0.52901669  0.87087342  0.05507738  1
  H  H413  1  0.73108359  0.67076427  0.22020248  1
  H  H414  1  0.86985601  0.66704402  0.19428308  1
  C  C415  1  0.80351835  0.55652127  0.07065018  1
  C  C416  1  0.59762924  0.71663355  0.18897509  1
  H  H417  1  0.70317648  0.75447145  0.14982081  1
  C  C418  1  0.94039583  0.77400944  0.08277780  1
  H  H419  1  0.80605669  0.81195903  0.10699849  1
  C  C420  1  0.65007364  0.70840038  0.00183831  1
  N  N421  1  0.94768298  0.75390226  0.19404834  1
  C  C422  1  0.72760270  0.73505910  0.00986802  1
  O  O423  1  0.82200787  0.79340009  0.15769597  1
  C  C424  1  0.71897929  0.80067688  0.02823962  1
  C  C425  1  0.85755141  0.59724096  0.10490273  1
  C  C426  1  0.66277785  0.51671689  0.05987686  1
  C  C427  1  0.83172684  0.63692212  0.16020546  1
  H  H428  1  0.58881266  0.69158458  0.13724395  1
  C  C429  1  0.89359377  0.77731584  0.14624377  1
  O  O430  1  0.76863729  0.83959759  0.04083962  1
  C  C431  1  0.52866911  0.97874377  0.02053704  1
  H  H432  1  0.64453610  0.59242134  0.16810133  1
  C  C433  1  0.59841356  0.75623768  0.02003818  1
  C  C434  1  0.55565792  0.50158667  0.02208645  1
  H  H435  1  0.87478395  0.83915575  0.01171992  1
  N  N436  1  0.59253211  0.53704190  0.06752734  1
  H  H437  1  0.53590235  0.75862587  0.02036040  1
  H  H438  1  0.50733432  0.57782555  0.13155015  1
  C  C439  1  0.98900726  0.92183279  0.23308313  1
  C  C440  1  0.83539570  0.51260097  0.01538698  1
  H  H441  1  0.59227779  0.91478607  0.47690402  1
  H  H442  1  0.73082217  0.81907859  0.25763194  1
  C  C443  1  0.79679358  0.65942513  0.33621821  1
  C  C444  1  0.85413382  0.86267000  0.41324610  1
  C  C445  1  0.88914924  0.80396430  0.30469412  1
  H  H446  1  0.64007773  0.85786301  0.40444630  1
  H  H447  1  0.56635363  0.54752928  0.46834627  1
  H  H448  1  0.73740939  0.52809482  0.38792411  1
  N  N449  1  0.53115989  0.81936837  0.39324942  1
  C  C450  1  0.74471131  0.92782118  0.37871463  1
  C  C451  1  0.96349841  0.79684826  0.41899187  1
  H  H452  1  0.94767572  0.93931542  0.32197080  1
  C  C453  1  0.90406165  0.81942562  0.37658390  1
  O  O454  1  0.78170338  0.87776846  0.36434428  1
  C  C455  1  0.63053092  0.55569258  0.29111435  1
  C  C456  1  0.61475667  0.79599552  0.30377000  1
  C  C457  1  0.64579827  0.65495885  0.35421347  1
  C  C458  1  0.76544220  0.60205710  0.30895054  1
  C  C459  1  0.76206711  0.71432255  0.37325168  1
  C  C460  1  0.68248220  0.70976486  0.38131618  1
  H  H461  1  0.79275320  0.75756663  0.38371548  1
  C  C462  1  0.56662286  0.63380277  0.35062321  1
  N  N463  1  0.55849791  0.58133376  0.31802310  1
  C  C464  1  0.68329719  0.60435494  0.31692329  1
  H  H465  1  0.64948198  0.74430159  0.40794053  1
  H  H466  1  0.79385973  0.56713336  0.27631126  1
  C  C467  1  0.70615981  0.97261505  0.39622810  1
  C  C468  1  0.60216228  0.82731179  0.37270985  1
  C  C469  1  0.67704867  0.79334959  0.25176760  1
  C  C470  1  0.93719476  0.76025781  0.27166985  1
  C  C471  1  0.54551571  0.76088122  0.29588108  1
  C  C472  1  0.51356128  0.52764649  0.48943581  1
  H  H473  1  0.85073186  0.83525157  0.27290956  1
  H  H474  1  0.51806383  0.66213837  0.37288199  1
  C  C475  1  0.99189165  0.73177909  0.31635320  1
  O  O476  1  0.86602191  0.88249754  0.47042209  1
  H  H477  1  0.97246562  0.80998150  0.47458738  1
  C  C478  1  0.96162013  0.53291919  0.43498845  1
  C  C479  1  0.53958137  0.89579720  0.49381167  1
  O  O480  1  0.90016988  0.52668470  0.41584202  1
  O  O481  1  0.64717985  0.51394889  0.25150569  1
  O  O482  1  0.53782034  0.65100077  0.49857330  1
  O  O483  1  0.93527003  0.95800512  0.27599759  1
  C  C484  1  0.51848557  0.94550955  0.26145905  1
  O  O485  1  0.58000090  0.92643410  0.25521124  1
  C  C486  1  0.88622304  0.65422520  0.69816464  1
  C  C487  1  0.85284858  0.76040136  0.68096073  1
  C  C488  1  0.61890756  0.84868479  0.64760214  1
  C  C489  1  0.92169312  0.59561226  0.68068409  1
  H  H490  1  0.76437263  0.85032163  0.54442586  1
  C  C491  1  0.94479822  0.58687537  0.60870932  1
  O  O492  1  0.53322138  0.98905186  0.65267266  1
  C  C493  1  0.66652097  0.66081329  0.58830557  1
  C  C494  1  0.71698134  0.83268132  0.57219423  1
  C  C495  1  0.63179345  0.78176452  0.63653581  1
  H  H496  1  0.78180966  0.56348758  0.65856551  1
  C  C497  1  0.59482456  0.73325498  0.66939170  1
  H  H498  1  0.54288715  0.69309309  0.52051077  1
  O  O499  1  0.81403939  0.94074441  0.67303857  1
  C  C500  1  0.71022440  0.70794502  0.55756203  1
  H  H501  1  0.86096262  0.94630897  0.64888660  1
  H  H502  1  0.92327687  0.55747435  0.72072990  1
  C  C503  1  0.61012292  0.67391137  0.64039411  1
  N  N504  1  0.68095522  0.87256530  0.61474850  1
  O  O505  1  0.56890377  0.87408672  0.68704181  1
  C  C506  1  0.74168897  0.54253839  0.62155052  1
  C  C507  1  0.88325278  0.70563218  0.64690535  1
  C  C508  1  0.66862220  0.51563635  0.64047443  1
  H  H509  1  0.57766075  0.63453926  0.66114043  1
  C  C510  1  0.69016692  0.77019016  0.58079019  1
  Cu  Cu511  1  0.71832928  0.96474971  0.61843069  1
  C  C512  1  0.55850268  0.96663067  0.59659023  1
  H  H513  1  0.82986922  0.55778272  0.54100745  1
  H  H514  1  0.96324487  0.54130786  0.59570417  1
  H  H515  1  0.90658770  0.72513129  0.53340086  1
  C  C516  1  0.90810604  0.69244285  0.57604697  1
  C  C517  1  0.77307578  0.53373636  0.55336585  1
  C  C518  1  0.93855548  0.63538051  0.55756207  1
  O  O519  1  0.84214612  0.81225169  0.65398456  1
  Cu  Cu520  1  0.77492530  0.86817885  0.70392137  1
  H  H521  1  0.64450470  0.52312459  0.69459643  1
  H  H522  1  0.67927107  0.61146588  0.57273183  1
  H  H523  1  0.54607136  0.74057509  0.70687769  1
  C  C524  1  0.51142510  0.91982783  0.55977477  1
  Cu  Cu525  1  0.57608261  0.95544299  0.73693508  1
  O  O526  1  0.62440886  0.98120170  0.56978362  1
  H  H527  1  0.75653477  0.69678600  0.51706202  1
  H  H528  1  0.95794975  0.62583930  0.50062852  1
  C  C529  1  0.72763261  0.50123817  0.50023398  1
  O  O530  1  0.61420828  0.91738666  0.82515157  1
  C  C531  1  0.55312830  0.52763432  0.81050418  1
  C  C532  1  0.87146519  0.87979352  0.84542018  1
  C  C533  1  0.67561682  0.82201241  0.83504471  1
  H  H534  1  0.70862500  0.73825254  0.84304374  1
  H  H535  1  0.82078996  0.60674681  0.93998986  1
  C  C536  1  0.60271103  0.79688086  0.85810502  1
  H  H537  1  0.93037486  0.81192391  0.77470689  1
  C  C538  1  0.77468147  0.63559277  0.95867616  1
  H  H539  1  0.55686156  0.83018751  0.87766924  1
  O  O540  1  0.58741116  0.74329837  0.86247143  1
  C  C541  1  0.91091207  0.50060404  0.90519876  1
  C  C542  1  0.81650197  0.89190579  0.90355923  1
  H  H543  1  0.80796175  0.97160473  0.97583774  1
  C  C544  1  0.81561508  0.78322448  0.80717632  1
  C  C545  1  0.92153355  0.93256339  0.83091054  1
  H  H546  1  0.69679624  0.56189483  0.94436002  1
  H  H547  1  0.77319810  0.85863736  0.92489433  1
  O  O548  1  0.72357331  0.90717295  0.77021885  1
  C  C549  1  0.87738196  0.82416506  0.80600271  1
  H  H550  1  0.77657623  0.54930844  0.78018586  1
  C  C551  1  0.70031611  0.61047390  0.96105705  1
  H  H552  1  0.84934717  0.66523632  0.81992985  1
  C  C553  1  0.98011529  0.79503560  0.95973418  1
  C  C554  1  0.67371686  0.88586022  0.81234213  1
  C  C555  1  0.66436435  0.59589860  0.78875319  1
  H  H556  1  0.55044377  0.62740333  0.81384548  1
  C  C557  1  0.73496208  0.78171320  0.82550126  1
  O  O558  1  0.90398689  0.53470080  0.96056551  1
  C  C559  1  0.63631447  0.64475731  0.98224318  1
  C  C560  1  0.58704591  0.58547897  0.81065071  1
  H  H561  1  0.68733967  0.64225665  0.77988532  1
  H  H562  1  0.96419073  0.81539482  0.90550037  1
  Cu  Cu563  1  0.79463701  0.96582100  0.77615175  1
  C  C564  1  0.89455101  0.97039070  0.88550422  1
  C  C565  1  0.71690215  0.54436530  0.78719409  1
  O  O566  1  0.97815981  0.93656549  0.77863003  1
  C  C567  1  0.83261199  0.94825502  0.93055880  1
  H  H568  1  0.57968470  0.62484811  0.98072498  1
  H  H569  1  0.84442497  0.71864590  0.98269036  1
  C  C570  1  0.78630561  0.69680912  0.98425292  1
  C  C571  1  0.96277281  0.50878790  0.84587533  1
  H  H572  1  0.51340281  0.72147495  0.93499966  1
  H  H573  1  0.70792212  0.91776143  0.99804869  1
  C  C574  1  0.86279477  0.68196564  0.76527954  1
  N  N575  1  0.84020452  0.74116469  0.75224330  1
