# generated using pymatgen
data_Cu4H28C57O16
_symmetry_space_group_name_H-M   'P 1'
_cell_length_a   17.80150423
_cell_length_b   25.98091365
_cell_length_c   12.15150925
_cell_angle_alpha   90.00000000
_cell_angle_beta   90.00000000
_cell_angle_gamma   90.00000000
_symmetry_Int_Tables_number   1
_chemical_formula_structural   Cu4H28C57O16
_chemical_formula_sum   'Cu16 H112 C228 O64'
_cell_volume   5620.06506085
_cell_formula_units_Z   4
loop_
 _symmetry_equiv_pos_site_id
 _symmetry_equiv_pos_as_xyz
  1  'x, y, z'
loop_
 _atom_site_type_symbol
 _atom_site_label
 _atom_site_symmetry_multiplicity
 _atom_site_fract_x
 _atom_site_fract_y
 _atom_site_fract_z
 _atom_site_occupancy
  C  C0  1  0.15852520  0.04563500  0.05519396  1
  C  C1  1  0.14212912  0.07838071  0.14649153  1
  H  H2  1  0.12179790  0.11734611  0.13272775  1
  C  C3  1  0.07720022  0.29838691  0.10332957  1
  H  H4  1  0.02346797  0.22643751  0.14708799  1
  C  C5  1  0.03371188  0.37700962  0.16698569  1
  O  O6  1  0.47932811  0.49415380  0.13428699  1
  O  O7  1  0.06695792  0.46435178  0.12811635  1
  C  C8  1  0.08578103  0.35190654  0.09996835  1
  C  C9  1  0.42409235  0.48109498  0.06994492  1
  H  H10  1  0.12774132  0.37246606  0.05389404  1
  C  C11  1  0.02464249  0.43308723  0.17592291  1
  C  C12  1  0.02598359  0.26756594  0.15363816  1
  C  C13  1  0.14847252  0.05671290  0.24773949  1
  O  O14  1  0.13503797  0.22179133  0.02473973  1
  C  C15  1  0.28791796  0.48925386  0.01599493  1
  C  C16  1  0.13591559  0.27283399  0.03134485  1
  C  C17  1  0.12898730  0.08344336  0.35244354  1
  O  O18  1  0.11298301  0.13039236  0.35008302  1
  O  O19  1  0.12690710  0.06289575  0.44603083  1
  Cu  Cu20  1  0.19108571  0.17270897  0.40604585  1
  H  H21  1  0.42219099  0.09110117  0.43590386  1
  O  O22  1  0.30406840  0.04572997  0.42878453  1
  O  O23  1  0.26493922  0.21302756  0.45163479  1
  C  C24  1  0.45704597  0.05717860  0.45889692  1
  C  C25  1  0.34265682  0.00708973  0.46557413  1
  O  O26  1  0.15213871  0.46170463  0.44068490  1
  C  C27  1  0.42587478  0.00992207  0.48099067  1
  H  H28  1  0.27557346  0.30359383  0.49005226  1
  C  C29  1  0.16946671  0.00338554  0.26039974  1
  H  H30  1  0.27821700  0.49425865  0.44505052  1
  O  O31  1  0.15394514  0.16398894  0.65474785  1
  Cu  Cu32  1  0.13852895  0.10897085  0.55519555  1
  C  C33  1  0.39682063  0.23675553  0.66585875  1
  C  C34  1  0.09612621  0.16764384  0.71490186  1
  H  H35  1  0.41486619  0.19603153  0.68232808  1
  Cu  Cu36  1  0.16721874  0.40366938  0.53361822  1
  C  C37  1  0.34698673  0.24932696  0.58026671  1
  C  C38  1  0.06304131  0.21835416  0.74625499  1
  O  O39  1  0.15014557  0.35187301  0.62794753  1
  C  C40  1  0.35151519  0.33766202  0.61778088  1
  C  C41  1  0.42779170  0.27573966  0.72736513  1
  C  C42  1  0.40075525  0.32529669  0.70269470  1
  C  C43  1  0.09484565  0.35574071  0.69421692  1
  C  C44  1  0.32163106  0.39001700  0.59985345  1
  C  C45  1  0.05964066  0.30906909  0.73723600  1
  H  H46  1  0.15424272  0.26669978  0.67628906  1
  O  O47  1  0.35083177  0.42401531  0.66057026  1
  Cu  Cu48  1  0.44385794  0.46551930  0.61475144  1
  C  C49  1  0.09785509  0.26289985  0.71215544  1
  O  O50  1  0.05851055  0.39716797  0.70532073  1
  C  C51  1  0.32128449  0.29870753  0.55552633  1
  O  O52  1  0.06337377  0.12717353  0.74777016  1
  O  O53  1  0.33699274  0.15885074  0.53906242  1
  Cu  Cu54  1  0.27697159  0.10383573  0.50218274  1
  Cu  Cu55  1  0.08408112  0.05602996  0.74800453  1
  H  H56  1  0.49311377  0.16391341  0.51148912  1
  O  O57  1  0.27412843  0.39943753  0.52538626  1
  C  C58  1  0.31448065  0.20607127  0.52179450  1
  C  C59  1  0.47243035  0.09474644  0.86912604  1
  O  O60  1  0.15761850  0.04986363  0.85846579  1
  C  C61  1  0.39549591  0.09726367  0.86579150  1
  C  C62  1  0.35042580  0.05431754  0.85062589  1
  H  H63  1  0.28913130  0.05645030  0.85864923  1
  O  O64  1  0.16137640  0.46170342  0.88135050  1
  O  O65  1  0.27600959  0.14246294  0.86737572  1
  Cu  Cu66  1  0.20248910  0.18003987  0.93862844  1
  C  C67  1  0.34882362  0.14615119  0.88059441  1
  H  H68  1  0.29022419  0.45329854  0.96817814  1
  C  C69  1  0.14982459  0.07342196  0.94965359  1
  C  C70  1  0.38467448  0.00471784  0.84428280  1
  O  O71  1  0.37864704  0.18661761  0.88313767  1
  O  O72  1  0.13812901  0.12170720  0.95077515  1
  O  O73  1  0.17388035  0.29987515  0.97655458  1
  C  C74  1  0.48655877  0.26925518  0.82032728  1
  O  O75  1  0.42664296  0.44973505  0.99825072  1
  H  H76  1  0.47450901  0.34557270  0.89333070  1
  Cu  Cu77  1  0.07432377  0.43632905  0.82554017  1
  C  C78  1  0.46329392  0.00078139  0.83361869  1
  H  H79  1  0.41790350  0.35787631  0.75543678  1
  C  C80  1  0.27371412  0.57853575  0.14585159  1
  H  H81  1  0.39207414  0.56727061  0.18156213  1
  H  H82  1  0.33739275  0.66906523  0.08604252  1
  H  H83  1  0.46768526  0.66155647  0.13872207  1
  C  C84  1  0.21157747  0.55909295  0.08761146  1
  H  H85  1  0.15739111  0.57956369  0.08789756  1
  C  C86  1  0.30077162  0.67211665  0.16019882  1
  C  C87  1  0.26427332  0.62910286  0.20915852  1
  H  H88  1  0.04325808  0.65879598  0.09324632  1
  O  O89  1  0.02624682  0.57231370  0.14473133  1
  C  C90  1  0.34239475  0.55123627  0.14172462  1
  H  H91  1  0.12212065  0.70327351  0.16500874  1
  C  C92  1  0.28984119  0.71646843  0.22507664  1
  C  C93  1  0.11523338  0.73326997  0.10350305  1
  Cu  Cu94  1  0.02537744  0.51995716  0.04653350  1
  H  H95  1  0.30850458  0.85237780  0.06379088  1
  H  H96  1  0.23245219  0.72832369  0.04978764  1
  C  C97  1  0.03852038  0.80081793  0.00807479  1
  C  C98  1  0.18057046  0.74926068  0.04930789  1
  C  C99  1  0.41474237  0.72493255  0.00683530  1
  C  C100  1  0.49755991  0.68590951  0.19735787  1
  C  C101  1  0.18511279  0.99601271  0.06210307  1
  C  C102  1  0.43768777  0.75968659  0.09531210  1
  C  C103  1  0.39901335  0.80593769  0.12064001  1
  H  H104  1  0.41751247  0.83648372  0.18185529  1
  C  C105  1  0.21323709  0.91857108  0.20116311  1
  C  C106  1  0.15953195  0.87854063  0.17917930  1
  C  C107  1  0.33322645  0.81435991  0.05870479  1
  H  H108  1  0.11254872  0.88592790  0.12161519  1
  C  C109  1  0.04614969  0.75959882  0.08458773  1
  C  C110  1  0.19351577  0.97426506  0.16892069  1
  C  C111  1  0.34925176  0.50851070  0.07414590  1
  H  H112  1  0.31888559  0.75209245  0.20674574  1
  C  C113  1  0.47162816  0.93772998  0.24187742  1
  O  O114  1  0.41572643  0.96488745  0.22920908  1
  C  C115  1  0.49259978  0.73898580  0.18051257  1
  H  H116  1  0.32564746  0.93811371  0.24192128  1
  C  C117  1  0.00053950  0.67577591  0.14680074  1
  H  H118  1  0.11942558  0.80585291  0.23680139  1
  C  C119  1  0.16529138  0.83244190  0.23997350  1
  O  O120  1  0.47425131  0.89056103  0.24102027  1
  C  C121  1  0.22143841  0.51677637  0.01656871  1
  C  C122  1  0.21080209  0.67446511  0.36461212  1
  C  C123  1  0.24597599  0.72026394  0.32216672  1
  H  H124  1  0.36271117  0.70994869  0.39458545  1
  H  H125  1  0.19745164  0.59147689  0.33870177  1
  C  C126  1  0.21939445  0.62896812  0.30582015  1
  H  H127  1  0.09943844  0.73861742  0.29405567  1
  H  H128  1  0.18480734  0.67715601  0.44362181  1
  C  C129  1  0.09423725  0.74904218  0.38418950  1
  C  C130  1  0.13232624  0.50598645  0.47057393  1
  C  C131  1  0.36408656  0.74287119  0.44919372  1
  C  C132  1  0.02442099  0.74552264  0.43897151  1
  C  C133  1  0.23544458  0.77280882  0.37949860  1
  O  O134  1  0.06581519  0.51741298  0.46461503  1
  C  C135  1  0.15763698  0.76595564  0.44188898  1
  C  C136  1  0.23038589  0.82205507  0.30834952  1
  C  C137  1  0.28812205  0.86166482  0.31276925  1
  H  H138  1  0.33873803  0.85412915  0.35984425  1
  H  H139  1  0.17247060  0.98593447  0.34189923  1
  C  C140  1  0.30557355  0.78123625  0.45321124  1
  O  O141  1  0.41315187  0.50116339  0.49052281  1
  C  C142  1  0.28194821  0.90783090  0.25177615  1
  O  O143  1  0.31276382  0.96700813  0.49543612  1
  C  C144  1  0.26797772  0.53225745  0.48564504  1
  C  C145  1  0.30303181  0.60935080  0.57930724  1
  C  C146  1  0.22613944  0.62202697  0.59337398  1
  C  C147  1  0.16888302  0.59032165  0.55519988  1
  H  H148  1  0.33133586  0.69847448  0.60759233  1
  H  H149  1  0.35141821  0.63112225  0.60781175  1
  C  C150  1  0.28109029  0.70431574  0.66443647  1
  H  H151  1  0.10841791  0.59655334  0.56134010  1
  H  H152  1  0.47320028  0.72391106  0.53228860  1
  C  C153  1  0.21658689  0.67097662  0.66139681  1
  C  C154  1  0.42332005  0.75045004  0.52613971  1
  C  C155  1  0.32313427  0.56567029  0.52292512  1
  C  C156  1  0.19205928  0.54380051  0.50567200  1
  C  C157  1  0.02394250  0.74862670  0.55665091  1
  H  H158  1  0.33997998  0.76838048  0.73142904  1
  O  O159  1  0.45594453  0.57619375  0.54382022  1
  H  H160  1  0.47410217  0.69562110  0.68739637  1
  H  H161  1  0.21098928  0.78517534  0.59623711  1
  C  C162  1  0.30960630  0.82318592  0.52907764  1
  O  O163  1  0.07933768  0.98454883  0.72463877  1
  C  C164  1  0.47238051  0.77962058  0.70221206  1
  C  C165  1  0.09045488  0.76287178  0.61350088  1
  H  H166  1  0.08369549  0.77060910  0.70191512  1
  H  H167  1  0.37455662  0.86178431  0.66440028  1
  C  C168  1  0.42248840  0.79149099  0.60535163  1
  C  C169  1  0.15808925  0.77497110  0.55633541  1
  C  C170  1  0.37037089  0.83312549  0.60067672  1
  H  H171  1  0.26382989  0.85063476  0.53546941  1
  C  C172  1  0.28845539  0.74788099  0.73110966  1
  H  H173  1  0.43289200  0.93123389  0.53532151  1
  C  C174  1  0.46317355  0.96602988  0.51628241  1
  C  C175  1  0.49513180  0.72882223  0.73244547  1
  H  H176  1  0.48699461  0.85715363  0.74780089  1
  C  C177  1  0.15605158  0.68499243  0.73681828  1
  H  H178  1  0.10474411  0.65974899  0.73534940  1
  C  C179  1  0.40274149  0.54737914  0.51474849  1
  C  C180  1  0.16485977  0.72470893  0.81496697  1
  H  H181  1  0.33113078  0.70731373  0.87875846  1
  O  O182  1  0.10540428  0.53152808  0.93717589  1
  C  C183  1  0.34902410  0.73338255  0.94836030  1
  H  H184  1  0.11983177  0.72974089  0.87531278  1
  H  H185  1  0.49021144  0.96458285  0.81536744  1
  C  C186  1  0.16025337  0.50222580  0.93739801  1
  C  C187  1  0.35389541  0.85770281  0.86201356  1
  H  H188  1  0.39240078  0.82540467  0.88077611  1
  C  C189  1  0.23725337  0.89784116  0.82371361  1
  H  H190  1  0.22870942  0.98088564  0.79265523  1
  C  C191  1  0.26614361  0.94846746  0.81824009  1
  C  C192  1  0.23016170  0.75656039  0.81034402  1
  C  C193  1  0.38420465  0.90718964  0.85922860  1
  C  C194  1  0.27381814  0.85416752  0.86099903  1
  H  H195  1  0.44475047  0.90981755  0.87966661  1
  C  C196  1  0.10532001  0.81657671  0.95728233  1
  C  C197  1  0.24817270  0.79802596  0.89732410  1
  C  C198  1  0.17470029  0.79142546  0.97407325  1
  O  O199  1  0.05235094  0.92036556  0.83433980  1
  C  C200  1  0.31134575  0.78112976  0.97205179  1
  H  H201  1  0.10484947  0.84775718  0.89732362  1
  C  C202  1  0.34219011  0.95459353  0.84065431  1
  H  H203  1  0.17565342  0.89861686  0.81037991  1
  H  H204  1  0.19787716  0.97172759  0.99143964  1
  H  H205  1  0.45292086  0.69141306  0.99205769  1
  C  C206  1  0.03206868  0.95813873  0.78911173  1
  C  C207  1  0.63888644  0.09502312  0.18862648  1
  C  C208  1  0.71305951  0.10705201  0.14999890  1
  C  C209  1  0.66018854  0.18793529  0.09742551  1
  H  H210  1  0.53864542  0.20210022  0.10279081  1
  C  C211  1  0.58565453  0.17660443  0.12666578  1
  C  C212  1  0.62599165  0.03949349  0.21823189  1
  C  C213  1  0.57403827  0.12729610  0.17276372  1
  C  C214  1  0.72499469  0.15592546  0.10513912  1
  H  H215  1  0.75955405  0.07854462  0.15506815  1
  H  H216  1  0.87425199  0.21738993  0.17575626  1
  C  C217  1  0.55580818  0.01510924  0.21523798  1
  H  H218  1  0.78429686  0.16810390  0.08406400  1
  H  H219  1  0.57650554  0.32954218  0.03562547  1
  H  H220  1  0.71400996  0.34343801  0.02318028  1
  C  C221  1  0.68801484  0.00805847  0.24521406  1
  H  H222  1  0.72905051  0.41435248  0.17337432  1
  C  C223  1  0.67073175  0.24463171  0.04878786  1
  C  C224  1  0.81008356  0.27199969  0.06085699  1
  C  C225  1  0.70584598  0.33549562  0.11176507  1
  C  C226  1  0.67922886  0.28583495  0.14125039  1
  H  H227  1  0.80142321  0.28659739  0.14681764  1
  C  C228  1  0.71204305  0.37484335  0.19186418  1
  C  C229  1  0.97834121  0.29637489  0.22443643  1
  H  H230  1  0.51939400  0.11111807  0.19271873  1
  H  H231  1  0.50394741  0.03692429  0.20071814  1
  C  C232  1  0.97664347  0.34926594  0.22388474  1
  H  H233  1  0.74370952  0.02725386  0.24542002  1
  O  O234  1  0.97169488  0.44877613  0.23745915  1
  C  C235  1  0.87864149  0.27804483  0.00709942  1
  H  H236  1  0.92516068  0.29621647  0.05217722  1
  H  H237  1  0.75802906  0.19710531  0.30099665  1
  C  C238  1  0.80490981  0.22248670  0.32561404  1
  C  C239  1  0.70956303  0.14569650  0.44472493  1
  H  H240  1  0.67865923  0.06419592  0.41710606  1
  C  C241  1  0.65773023  0.10344077  0.44324592  1
  H  H242  1  0.76893254  0.13831462  0.43536825  1
  C  C243  1  0.58257413  0.10894252  0.47927675  1
  C  C244  1  0.86330782  0.27309544  0.47777149  1
  C  C245  1  0.80764956  0.23806141  0.43906941  1
  C  C246  1  0.53364031  0.06075831  0.48378962  1
  C  C247  1  0.65574809  0.42019750  0.45938903  1
  H  H248  1  0.77621767  0.33734790  0.47579514  1
  C  C249  1  0.68336265  0.19213356  0.48212904  1
  C  C250  1  0.70378531  0.36461616  0.30735944  1
  H  H251  1  0.60011636  0.40155160  0.44522622  1
  H  H252  1  0.67066876  0.30251546  0.42518042  1
  H  H253  1  0.93216867  0.37002555  0.27314971  1
  C  C254  1  0.92094198  0.29071173  0.40896029  1
  C  C255  1  0.86942755  0.23254465  0.26227353  1
  C  C256  1  0.78628467  0.43285513  0.40603446  1
  C  C257  1  0.67623095  0.31440549  0.33574457  1
  H  H258  1  0.96275009  0.32208886  0.43405344  1
  C  C259  1  0.92354942  0.27100618  0.30234841  1
  C  C260  1  0.71829746  0.40730985  0.39431014  1
  H  H261  1  0.83813701  0.42282261  0.36065224  1
  H  H262  1  0.64161614  0.23886384  0.27777950  1
  O  O263  1  0.91987544  0.47578370  0.45772485  1
  C  C264  1  0.78992337  0.47299834  0.47968645  1
  C  C265  1  0.55255131  0.16039901  0.49811978  1
  C  C266  1  0.66695312  0.27621617  0.25715281  1
  C  C267  1  0.86329920  0.16894717  0.58718825  1
  C  C268  1  0.78631921  0.18195536  0.59691240  1
  H  H269  1  0.94727007  0.11502975  0.63560681  1
  C  C270  1  0.88952274  0.12446598  0.64476383  1
  C  C271  1  0.73881795  0.15150086  0.66468856  1
  H  H272  1  0.67687582  0.16395138  0.66194186  1
  H  H273  1  0.97214838  0.03980750  0.67250288  1
  C  C274  1  0.84217319  0.09531504  0.71564065  1
  C  C275  1  0.60410667  0.20103389  0.50640959  1
  C  C276  1  0.74812679  0.22634857  0.52809845  1
  O  O277  1  0.54526299  0.44614390  0.61126567  1
  C  C278  1  0.66253772  0.46137007  0.52899830  1
  C  C279  1  0.76570706  0.11218188  0.73475711  1
  C  C280  1  0.75427608  0.32517900  0.55799237  1
  C  C281  1  0.73289031  0.27518761  0.59764725  1
  H  H282  1  0.65743095  0.23870374  0.72347141  1
  C  C283  1  0.59441490  0.48027907  0.58807597  1
  C  C284  1  0.75668624  0.36811987  0.62781288  1
  H  H285  1  0.63602175  0.02319356  0.53763389  1
  H  H286  1  0.58432229  0.23885508  0.52890429  1
  C  C287  1  0.68572734  0.27319296  0.69262704  1
  H  H288  1  0.86527959  0.28426102  0.56726260  1
  C  C289  1  0.72792608  0.49005344  0.54056142  1
  H  H290  1  0.77689869  0.40730832  0.60403658  1
  C  C291  1  0.57642114  0.01919272  0.52315680  1
  C  C292  1  0.71967776  0.36533630  0.73228307  1
  H  H293  1  0.90218693  0.19445832  0.53805799  1
  C  C294  1  0.94056066  0.02465934  0.74295209  1
  H  H295  1  0.51964439  0.19471017  0.74503456  1
  C  C296  1  0.58873727  0.04391398  0.86571786  1
  O  O297  1  0.62423307  0.08153450  0.88798481  1
  C  C298  1  0.58841355  0.21553513  0.88819399  1
  H  H299  1  0.61692008  0.17759849  0.87971236  1
  H  H300  1  0.77031265  0.04501637  0.86917727  1
  C  C301  1  0.82406266  0.02746790  0.85053849  1
  C  C302  1  0.75683543  0.23195750  0.89123975  1
  H  H303  1  0.71236154  0.21238002  0.84980917  1
  C  C304  1  0.52960027  0.22292576  0.81142556  1
  C  C305  1  0.82732735  0.23986470  0.83841552  1
  H  H306  1  0.97314374  0.17753579  0.83835202  1
  H  H307  1  0.83770489  0.22617796  0.75413545  1
  C  C308  1  0.75077656  0.25040914  0.99975974  1
  C  C309  1  0.50474905  0.04603342  0.85394746  1
  C  C310  1  0.84823216  0.45290740  0.88345560  1
  C  C311  1  0.79677735  0.49068932  0.92327143  1
  C  C312  1  0.68818130  0.44054182  0.86508912  1
  H  H313  1  0.96468723  0.34532856  0.82814668  1
  C  C314  1  0.88859775  0.26151915  0.89688961  1
  H  H315  1  0.85629100  0.38291642  0.78367528  1
  C  C316  1  0.81892818  0.41103620  0.82455967  1
  C  C317  1  0.96519848  0.26266081  0.83504492  1
  H  H318  1  0.66532182  0.31464165  0.84612339  1
  H  H319  1  0.62872996  0.43661403  0.84639185  1
  C  C320  1  0.74148361  0.40889801  0.81283121  1
  O  O321  1  0.97569333  0.42996879  0.87868419  1
  C  C322  1  0.55794746  0.29916695  0.97639213  1
  H  H323  1  0.73241378  0.09479497  0.80106852  1
  C  C324  1  0.60313048  0.25386743  0.96635563  1
  C  C325  1  0.72124831  0.48070166  0.92439874  1
  C  C326  1  0.92811168  0.46279706  0.90456051  1
  C  C327  1  0.87167377  0.04734844  0.76834217  1
  C  C328  1  0.99875256  0.21574840  0.81166070  1
  C  C329  1  0.68864263  0.31681629  0.76443029  1
  C  C330  1  0.99377851  0.30942088  0.80060291  1
  H  H331  1  0.50888072  0.12699098  0.88363612  1
  C  C332  1  0.50517082  0.31018192  0.89544655  1
  Cu  Cu333  1  0.55769041  0.54571126  0.10798251  1
  O  O334  1  0.60122026  0.84227512  0.01257630  1
  C  C335  1  0.95559364  0.64271631  0.20985908  1
  C  C336  1  0.98635951  0.72860798  0.15223982  1
  C  C337  1  0.92736977  0.74897642  0.20887704  1
  C  C338  1  0.97409033  0.58668659  0.20382842  1
  O  O339  1  0.51432905  0.58581778  0.21871981  1
  O  O340  1  0.70097980  0.56268628  0.01409556  1
  H  H341  1  0.91347145  0.78868674  0.20493179  1
  H  H342  1  0.52555491  0.81467325  0.24249992  1
  C  C343  1  0.54916066  0.96319413  0.23988940  1
  O  O344  1  0.80185476  0.92279639  0.02949671  1
  C  C345  1  0.57188670  0.70005170  0.36264261  1
  O  O346  1  0.59025890  0.59408965  0.36840328  1
  H  H347  1  0.60178467  0.68326030  0.43265854  1
  C  C348  1  0.82860287  0.73942247  0.34736044  1
  C  C349  1  0.74947256  0.92340769  0.27505154  1
  C  C350  1  0.54240294  0.61108009  0.29682622  1
  H  H351  1  0.86973731  0.64061477  0.34007906  1
  O  O352  1  0.78500260  0.71320363  0.39791390  1
  C  C353  1  0.88402696  0.71506149  0.27541397  1
  C  C354  1  0.90372590  0.66429794  0.28450652  1
  C  C355  1  0.53874465  0.66685354  0.28674262  1
  C  C356  1  0.56525859  0.75278347  0.34670978  1
  O  O357  1  0.74473334  0.87413671  0.26916810  1
  O  O358  1  0.63341337  0.82847666  0.40153917  1
  O  O359  1  0.80944757  0.94601476  0.27105942  1
  Cu  Cu360  1  0.74001393  0.83242174  0.39290116  1
  O  O361  1  0.94505211  0.55585157  0.27248290  1
  O  O362  1  0.82390393  0.79077620  0.35114200  1
  C  C363  1  0.59837886  0.78865388  0.42769797  1
  H  H364  1  0.97087274  0.73975393  0.39512123  1
  C  C365  1  0.52557030  0.77205402  0.25945137  1
  H  H366  1  0.60344817  0.88800745  0.26861505  1
  Cu  Cu367  1  0.99547052  0.50261440  0.35521600  1
  C  C368  1  0.60903263  0.93159223  0.25889750  1
  C  C369  1  0.67981017  0.95653537  0.26477008  1
  Cu  Cu370  1  0.56017099  0.56915837  0.49801901  1
  C  C371  1  0.86363020  0.50099489  0.49629041  1
  O  O372  1  0.58874543  0.52640894  0.61127411  1
  O  O373  1  0.87395238  0.53286994  0.56592645  1
  C  C374  1  0.93364861  0.70558109  0.69422603  1
  C  C375  1  0.58666837  0.92754049  0.58823802  1
  C  C376  1  0.53874658  0.97253150  0.54294143  1
  O  O377  1  0.64849802  0.93689965  0.61867891  1
  H  H378  1  0.73074726  0.52539865  0.58665764  1
  C  C379  1  0.88939717  0.77713331  0.58985775  1
  H  H380  1  0.90422559  0.80703171  0.52889413  1
  O  O381  1  0.77758564  0.84254305  0.54740858  1
  O  O382  1  0.54938906  0.88431845  0.60528257  1
  O  O383  1  0.70151049  0.80824093  0.67815055  1
  C  C384  1  0.82465594  0.77785530  0.65327494  1
  C  C385  1  0.94973069  0.74473784  0.61635504  1
  C  C386  1  0.76465814  0.81276795  0.62638470  1
  Cu  Cu387  1  0.60513419  0.82751344  0.62900884  1
  O  O388  1  0.59487471  0.77530846  0.52792296  1
  C  C389  1  0.81451941  0.74477422  0.74369437  1
  H  H390  1  0.97353729  0.67419524  0.70545399  1
  Cu  Cu391  1  0.71377504  0.62265383  0.93204284  1
  O  O392  1  0.62049294  0.66047171  0.92716733  1
  O  O393  1  0.77306140  0.66679107  0.86122883  1
  C  C394  1  0.84754134  0.66631781  0.84200924  1
  O  O395  1  0.88925745  0.63306839  0.86605036  1
  C  C396  1  0.54705020  0.72234190  0.82090023  1
  C  C397  1  0.57771672  0.66833629  0.84407466  1
  C  C398  1  0.57300768  0.85337585  0.92654278  1
  C  C399  1  0.78416824  0.95972683  0.97667437  1
  H  H400  1  0.76007020  0.74710796  0.79383727  1
  O  O401  1  0.57088275  0.90225823  0.89766054  1
  C  C402  1  0.91239306  0.95750073  0.88928830  1
  C  C403  1  0.95751330  0.98117158  0.80763719  1
  H  H404  1  0.92617380  0.92375731  0.93645146  1
  O  O405  1  0.55161145  0.63255305  0.79271270  1
  H  H406  1  0.81785691  0.52544883  0.96849705  1
  C  C407  1  0.54790151  0.80912789  0.85827723  1
  Cu  Cu408  1  0.63811534  0.94368785  0.94272844  1
  O  O409  1  0.60678241  0.50844200  0.99963890  1
  C  C410  1  0.57390718  0.75992788  0.88915451  1
  C  C411  1  0.84344876  0.98205423  0.90120473  1
  C  C412  1  0.86918213  0.70679066  0.75911686  1
  H  H413  1  0.60487728  0.75228460  0.96114023  1
  C  C414  1  0.50205413  0.81866007  0.76741747  1
  C  C415  1  0.67393548  0.52104045  0.97903966  1
  O  O416  1  0.94851360  0.50646418  0.93901586  1
  O  O417  1  0.71844208  0.98072923  0.99178617  1
  O  O418  1  0.61719953  0.99838522  0.84045712  1
  H  H419  1  0.98504219  0.81471616  0.98356778  1
