# generated using pymatgen
data_Cu2H24(C11O4)3
_symmetry_space_group_name_H-M   'P 1'
_cell_length_a   24.84045304
_cell_length_b   5.50893039
_cell_length_c   24.76165818
_cell_angle_alpha   90.00000000
_cell_angle_beta   90.00000000
_cell_angle_gamma   90.00000000
_symmetry_Int_Tables_number   1
_chemical_formula_structural   Cu2H24(C11O4)3
_chemical_formula_sum   'Cu8 H96 C132 O48'
_cell_volume   3388.49243862
_cell_formula_units_Z   4
loop_
 _symmetry_equiv_pos_site_id
 _symmetry_equiv_pos_as_xyz
  1  'x, y, z'
loop_
 _atom_site_type_symbol
 _atom_site_label
 _atom_site_symmetry_multiplicity
 _atom_site_fract_x
 _atom_site_fract_y
 _atom_site_fract_z
 _atom_site_occupancy
  H  H0  1  0.08288657  0.10355582  0.19660874  1
  H  H1  1  0.22626583  0.20995122  0.04927947  1
  C  C2  1  0.08571219  0.22684884  0.15987621  1
  C  C3  1  0.34873370  0.26816596  0.11188379  1
  C  C4  1  0.01634530  0.41514200  0.03282882  1
  C  C5  1  0.31815546  0.44061996  0.02052128  1
  H  H6  1  0.39277886  0.32391591  0.10900235  1
  H  H7  1  0.00520362  0.14432778  0.12269754  1
  C  C8  1  0.13464630  0.35010486  0.15479507  1
  C  C9  1  0.30841678  0.30694767  0.07196083  1
  C  C10  1  0.25848918  0.20351224  0.08080682  1
  C  C11  1  0.33663577  0.15145992  0.15880857  1
  O  O12  1  0.17674068  0.37099249  0.19219757  1
  C  C13  1  0.05633370  0.37683328  0.07553111  1
  H  H14  1  0.27283372  0.29944827  0.24602309  1
  C  C15  1  0.04587877  0.23034104  0.12123563  1
  H  H16  1  0.36981910  0.14199995  0.18893720  1
  C  C17  1  0.28410508  0.05264063  0.17057890  1
  O  O18  1  0.36777026  0.48952071  0.01084971  1
  C  C19  1  0.24760568  0.08430237  0.12868210  1
  C  C20  1  0.14187260  0.47966951  0.10719779  1
  C  C21  1  0.10567264  0.49935807  0.06646719  1
  C  C22  1  0.16993656  0.41562674  0.24773891  1
  H  H23  1  0.08375259  0.19811734  0.30000445  1
  C  C24  1  0.15581943  0.24198080  0.44339809  1
  C  C25  1  0.10604618  0.21963270  0.34031826  1
  H  H26  1  0.17714196  0.24433706  0.48010360  1
  C  C27  1  0.26002492  0.41173734  0.28155945  1
  H  H28  1  0.24536525  0.27266208  0.31276812  1
  O  O29  1  0.27951242  0.45629381  0.46321342  1
  C  C30  1  0.16812360  0.07899946  0.40262450  1
  C  C31  1  0.14708399  0.04721396  0.35111722  1
  Cu  Cu32  1  0.39899708  0.23885232  0.48799147  1
  C  C33  1  0.11297095  0.39465395  0.42992209  1
  C  C34  1  0.09031113  0.39190155  0.37744924  1
  O  O35  1  0.31573437  0.45962086  0.31419805  1
  O  O36  1  0.44632488  0.12981864  0.43511369  1
  H  H37  1  0.16363290  0.23928525  0.26889282  1
  H  H38  1  0.12500742  0.19606993  0.72052231  1
  O  O39  1  0.49473218  0.37403131  0.56711954  1
  H  H40  1  0.12878767  0.44031867  0.65735135  1
  C  C41  1  0.15903307  0.30661211  0.74160868  1
  H  H42  1  0.18297144  0.42128696  0.71385022  1
  C  C43  1  0.29890695  0.46245214  0.50576065  1
  O  O44  1  0.34438555  0.33020155  0.52141430  1
  C  C45  1  0.49520397  0.15844643  0.70897501  1
  H  H46  1  0.46231707  0.27247437  0.72679104  1
  C  C47  1  0.48028707  0.35284123  0.61837807  1
  O  O48  1  0.44905682  0.49829482  0.63704316  1
  H  H49  1  0.26432351  0.06744468  0.72594869  1
  C  C50  1  0.12106433  0.24361029  0.92789160  1
  H  H51  1  0.04560458  0.32706047  0.88791990  1
  C  C52  1  0.19577532  0.13989242  0.77196068  1
  O  O53  1  0.42821745  0.28410970  0.83835378  1
  O  O54  1  0.36791615  0.33485467  0.90305805  1
  C  C55  1  0.09794911  0.01111441  0.95383873  1
  H  H56  1  0.19934031  0.18737422  0.96543049  1
  O  O57  1  0.28317402  0.48295244  0.98784446  1
  C  C58  1  0.23489627  0.31753883  0.79596055  1
  H  H59  1  0.20882797  0.45806344  0.81489651  1
  H  H60  1  0.12584692  0.07489416  0.82761552  1
  H  H61  1  0.25915158  0.23903774  0.82955438  1
  C  C62  1  0.38890097  0.21795919  0.86189693  1
  C  C63  1  0.17452833  0.30431253  0.94001546  1
  O  O64  1  0.27584025  0.44968269  0.76188885  1
  C  C65  1  0.08975184  0.38184668  0.89529677  1
  H  H66  1  0.40522823  0.02928703  0.76179135  1
  O  O67  1  0.11540203  0.48589506  0.75797750  1
  C  C68  1  0.36200815  0.00077437  0.83877724  1
  H  H69  1  0.31176572  0.56854970  0.20948331  1
  C  C70  1  0.35235661  0.57839087  0.22904775  1
  H  H71  1  0.23351645  0.69050873  0.18381440  1
  C  C72  1  0.22556194  0.76619831  0.22654657  1
  H  H73  1  0.38606054  0.78318557  0.15495787  1
  H  H74  1  0.11520106  0.62041994  0.02978417  1
  H  H75  1  0.17959668  0.58511492  0.10743508  1
  O  O76  1  0.27582458  0.93704677  0.21553313  1
  C  C77  1  0.39093265  0.69843954  0.19852250  1
  O  O78  1  0.47121157  0.92177706  0.14028398  1
  C  C79  1  0.47732747  0.87374020  0.19133437  1
  C  C80  1  0.43854646  0.73674403  0.22665371  1
  H  H81  1  0.20694434  0.99899250  0.13527329  1
  H  H82  1  0.19142288  0.87997312  0.22475297  1
  O  O83  1  0.04328758  0.67557990  0.45713663  1
  H  H84  1  0.18552608  0.58539177  0.35121764  1
  C  C85  1  0.19813262  0.71582012  0.31948520  1
  C  C86  1  0.21656166  0.57938038  0.26805779  1
  C  C87  1  0.40939407  0.55404959  0.30907344  1
  H  H88  1  0.20310358  0.94570775  0.41152757  1
  O  O89  1  0.15799201  0.89235571  0.30947209  1
  C  C90  1  0.46002440  0.90722873  0.43766668  1
  O  O91  1  0.43387318  0.77032086  0.47046675  1
  H  H92  1  0.48948337  0.69734741  0.29852584  1
  C  C93  1  0.08686187  0.56308996  0.46977126  1
  C  C94  1  0.44982461  0.66021553  0.28006041  1
  H  H95  1  0.23185095  0.83564854  0.33663360  1
  C  C96  1  0.35858900  0.51580182  0.28381051  1
  H  H97  1  0.42069535  0.50625942  0.35183701  1
  H  H98  1  0.13127477  0.51861305  0.25308709  1
  H  H99  1  0.05698506  0.53254231  0.36888552  1
  C  C100  1  0.09703076  0.57683440  0.66545146  1
  C  C101  1  0.08680021  0.61563860  0.72050317  1
  C  C102  1  0.07325299  0.70394480  0.62445384  1
  H  H103  1  0.08546116  0.66253034  0.58236675  1
  C  C104  1  0.04500885  0.78270659  0.73023255  1
  C  C105  1  0.19525835  0.78442571  0.58838089  1
  O  O106  1  0.19675213  0.94254538  0.67866245  1
  C  C107  1  0.22264039  0.82767937  0.63801381  1
  C  C108  1  0.03115189  0.86617312  0.63834067  1
  C  C109  1  0.01740192  0.91268480  0.69219021  1
  H  H110  1  0.36194968  0.70538100  0.72336891  1
  H  H111  1  0.29235591  0.75858179  0.68298205  1
  C  C112  1  0.27438279  0.73084763  0.64261537  1
  O  O113  1  0.10173917  0.55497382  0.51743206  1
  O  O114  1  0.01809173  0.96580287  0.54835493  1
  C  C115  1  0.30126398  0.60865309  0.60319071  1
  H  H116  1  0.15486575  0.86872590  0.58534344  1
  H  H117  1  0.20506051  0.67415941  0.50661556  1
  C  C118  1  0.22248904  0.67734898  0.54618846  1
  C  C119  1  0.27572546  0.59029434  0.55275326  1
  Cu  Cu120  1  0.46240877  0.56106188  0.51914459  1
  H  H121  1  0.34186827  0.54908018  0.61254630  1
  C  C122  1  0.00377528  0.99714334  0.59641229  1
  C  C123  1  0.22304673  0.97529582  0.73269810  1
  O  O124  1  0.02418109  0.54357907  0.99231798  1
  C  C125  1  0.11552365  0.58515603  0.87210412  1
  H  H126  1  0.09146162  0.70956154  0.84522490  1
  C  C127  1  0.16740440  0.66918455  0.87938992  1
  H  H128  1  0.14274908  0.82006309  0.78788358  1
  O  O129  1  0.19173568  0.87028137  0.85262967  1
  H  H130  1  0.03854026  0.81991601  0.77310217  1
  C  C131  1  0.29650599  0.69116906  0.84360401  1
  C  C132  1  0.19529826  0.51670961  0.91731091  1
  O  O133  1  0.44024523  0.78927943  0.98523330  1
  H  H134  1  0.47697808  0.98307393  0.90095405  1
  C  C135  1  0.34635207  0.73750917  0.76403299  1
  C  C136  1  0.30547297  0.61686814  0.78915951  1
  C  C137  1  0.32556726  0.86528395  0.86996525  1
  H  H138  1  0.26904664  0.59343208  0.87060226  1
  C  C139  1  0.37523169  0.92974981  0.78667008  1
  H  H140  1  0.23767559  0.57446022  0.92866736  1
  C  C141  1  0.48894062  0.75281404  0.99777896  1
  H  H142  1  0.23162743  0.79567879  0.75021187  1
  H  H143  1  0.32017828  0.91212690  0.91359744  1
  C  C144  1  0.16203206  0.98092995  0.81077213  1
  O  O145  1  0.12471621  0.92103036  0.98835594  1
  O  O146  1  0.04909546  0.95490256  0.93927279  1
  Cu  Cu147  1  0.39715690  0.54990321  0.94616925  1
  C  C148  1  0.59937152  0.31663443  0.08598929  1
  O  O149  1  0.61634780  0.24185987  0.04327913  1
  O  O150  1  0.55512303  0.23388533  0.10917434  1
  O  O151  1  0.70405868  0.10957343  0.18886661  1
  O  O152  1  0.87232977  0.06085816  0.01513753  1
  O  O153  1  0.97344522  0.28648566  0.03957809  1
  C  C154  1  0.86228600  0.47088946  0.15763996  1
  H  H155  1  0.81429518  0.09240195  0.09280999  1
  H  H156  1  0.87289053  0.28333607  0.17088472  1
  H  H157  1  0.64491235  0.27951471  0.23884477  1
  C  C158  1  0.68649340  0.19736732  0.24624850  1
  H  H159  1  0.91418512  0.44027426  0.08899126  1
  H  H160  1  0.67346269  0.27402261  0.34913342  1
  C  C161  1  0.71830960  0.36032013  0.28184407  1
  H  H162  1  0.58527031  0.33233643  0.38564249  1
  C  C163  1  0.76151206  0.23094487  0.31287427  1
  H  H164  1  0.84523550  0.10259052  0.34452920  1
  O  O165  1  0.74179806  0.03661392  0.35247968  1
  H  H166  1  0.79275612  0.41306337  0.46689553  1
  H  H167  1  0.50619912  0.44051421  0.43346554  1
  H  H168  1  0.78820480  0.35730243  0.33813167  1
  H  H169  1  0.79003240  0.11578740  0.28763502  1
  H  H170  1  0.58227893  0.02095995  0.30412692  1
  O  O171  1  0.88022544  0.37366333  0.49821478  1
  C  C172  1  0.89518807  0.49628659  0.45923311  1
  H  H173  1  0.68318227  0.01341137  0.26247819  1
  H  H174  1  0.50671273  0.15644354  0.35975022  1
  C  C175  1  0.68081960  0.45341334  0.32724167  1
  C  C176  1  0.70164414  0.15959650  0.73927281  1
  O  O177  1  0.71219538  0.23764726  0.67922948  1
  H  H178  1  0.57115691  0.08868294  0.59274482  1
  H  H179  1  0.61866543  0.36980799  0.69624219  1
  Cu  Cu180  1  0.91998231  0.26679755  0.55791746  1
  C  C181  1  0.75240193  0.12147121  0.65155140  1
  O  O182  1  0.96635128  0.14717605  0.60909927  1
  H  H183  1  0.82485074  0.13216788  0.53458733  1
  C  C184  1  0.77452350  0.17726815  0.60161300  1
  C  C185  1  0.81642382  0.06533760  0.57446648  1
  H  H186  1  0.76365427  0.34966655  0.57923582  1
  C  C187  1  0.51061313  0.18521073  0.65414929  1
  C  C188  1  0.63279812  0.48894845  0.73253944  1
  H  H189  1  0.98825675  0.06239427  0.70377675  1
  C  C190  1  0.55807636  0.06979987  0.63462863  1
  H  H191  1  0.90709178  0.05910263  0.78838527  1
  C  C192  1  0.63354031  0.20836134  0.80772815  1
  O  O193  1  0.65301366  0.06907763  0.85780642  1
  H  H194  1  0.60408397  0.33629334  0.82442557  1
  C  C195  1  0.88362199  0.29691113  0.88216489  1
  C  C196  1  0.86685196  0.01160099  0.80555773  1
  C  C197  1  0.84840093  0.11826957  0.85511232  1
  O  O198  1  0.87180900  0.34628164  0.93271316  1
  Cu  Cu199  1  0.91484644  0.32007784  0.99056328  1
  O  O200  1  0.92467067  0.36403539  0.86081242  1
  H  H201  1  0.61337219  0.03826728  0.78957020  1
  H  H202  1  0.54971763  0.11747100  0.83834549  1
  C  C203  1  0.66963350  0.34271354  0.76972266  1
  H  H204  1  0.71757634  0.40495486  0.83558010  1
  H  H205  1  0.78267557  0.15245672  0.91494715  1
  C  C206  1  0.79757487  0.07183891  0.87690144  1
  C  C207  1  0.55849790  0.03377563  0.87827753  1
  H  H208  1  0.74426466  0.14966554  0.75318394  1
  Cu  Cu209  1  0.52219775  0.95481664  0.08622705  1
  C  C210  1  0.69349191  0.83293122  0.11547767  1
  O  O211  1  0.50269925  0.67590322  0.04374299  1
  C  C212  1  0.63014212  0.81155938  0.18438763  1
  C  C213  1  0.67920157  0.92464019  0.16608154  1
  C  C214  1  0.82577421  0.91041741  0.11043055  1
  C  C215  1  0.88975877  0.86969658  0.03352716  1
  H  H216  1  0.77151346  0.93137986  0.17623528  1
  H  H217  1  0.73061626  0.91414773  0.09587622  1
  O  O218  1  0.51858755  0.91552706  0.21533245  1
  O  O219  1  0.92374415  0.73745122  0.00841058  1
  H  H220  1  0.61682535  0.84766957  0.22575173  1
  C  C221  1  0.86680092  0.77846038  0.08495794  1
  C  C222  1  0.88623002  0.56390269  0.11023096  1
  C  C223  1  0.80467270  0.81685238  0.15670717  1
  C  C224  1  0.66727725  0.65435409  0.08684274  1
  C  C225  1  0.82164747  0.59997661  0.18273564  1
  C  C226  1  0.60158883  0.63168990  0.15945428  1
  C  C227  1  0.74464047  0.55445987  0.24861283  1
  H  H228  1  0.71908066  0.59817332  0.21201952  1
  H  H229  1  0.56849981  0.54716252  0.18060865  1
  C  C230  1  0.62213448  0.54092552  0.11001693  1
  H  H231  1  0.68311157  0.59505432  0.04948947  1
  H  H232  1  0.59029064  0.71470963  0.01632498  1
  O  O233  1  0.79927971  0.50717431  0.22849290  1
  C  C234  1  0.77812585  0.89329177  0.37715412  1
  C  C235  1  0.59703092  0.67703487  0.34339427  1
  O  O236  1  0.63877839  0.60690594  0.30978019  1
  H  H237  1  0.74604580  0.73031376  0.26857377  1
  H  H238  1  0.72129828  0.64288878  0.42371006  1
  C  C239  1  0.52545955  0.58610507  0.40931488  1
  H  H240  1  0.91895440  0.83697537  0.38358459  1
  C  C241  1  0.83375027  0.94302828  0.37012037  1
  C  C242  1  0.76472804  0.70572549  0.41273907  1
  C  C243  1  0.50338064  0.81857200  0.40517176  1
  O  O244  1  0.94506487  0.53774282  0.45320539  1
  C  C245  1  0.87453749  0.81610226  0.39285221  1
  C  C246  1  0.56879899  0.90003879  0.33598229  1
  C  C247  1  0.85552275  0.63689407  0.42752737  1
  C  C248  1  0.80232054  0.56684780  0.43969291  1
  Cu  Cu249  1  0.98167988  0.75854793  0.49875939  1
  C  C250  1  0.56873864  0.51543031  0.37721077  1
  H  H251  1  0.70378730  0.57199197  0.35708408  1
  C  C252  1  0.52594882  0.97629981  0.36553273  1
  C  C253  1  0.58209862  0.89734891  0.66763162  1
  C  C254  1  0.56498894  0.82611405  0.71898339  1
  C  C255  1  0.77774470  0.90539857  0.66945140  1
  H  H256  1  0.61770191  0.81294602  0.64891011  1
  O  O257  1  0.91389820  0.84975368  0.53610228  1
  H  H258  1  0.76324018  0.82553984  0.70564508  1
  C  C259  1  0.84126161  0.86550729  0.59848969  1
  C  C260  1  0.82141426  0.78386693  0.64880465  1
  C  C261  1  0.88718167  0.74867451  0.57447624  1
  H  H262  1  0.85177741  0.74496303  0.74827033  1
  H  H263  1  0.68409723  0.97419226  0.73905471  1
  H  H264  1  0.84257099  0.62579026  0.66799916  1
  H  H265  1  0.65722269  0.63357460  0.71487493  1
  O  O266  1  0.90393085  0.55304229  0.59554615  1
  C  C267  1  0.52050287  0.97114345  0.73642321  1
  O  O268  1  0.58621783  0.64089334  0.74893758  1
  C  C269  1  0.53048011  0.84553480  0.96151057  1
  C  C270  1  0.58391697  0.79809859  0.97655693  1
  C  C271  1  0.78185520  0.78226093  0.80311627  1
  Cu  Cu272  1  0.99348221  0.84112992  0.98151672  1
  H  H273  1  0.67616776  0.66824602  0.82082516  1
  C  C274  1  0.76624068  0.89424234  0.85242530  1
  C  C275  1  0.51842488  0.96030816  0.91124759  1
  O  O276  1  0.75133134  0.61298473  0.77763889  1
  H  H277  1  0.73327614  0.81716741  0.87532267  1
  H  H278  1  0.66469363  0.85542421  0.95698052  1
  C  C279  1  0.70125042  0.52263973  0.80365028  1
  C  C280  1  0.83279327  0.84491584  0.78364990  1
  C  C281  1  0.62304283  0.87577271  0.94157981  1
  H  H282  1  0.50371942  0.92412700  0.77663930  1
  C  C283  1  0.61416379  0.99083006  0.89182586  1
