# generated using pymatgen
data_CuH10C16(NO)4
_symmetry_space_group_name_H-M   'P 1'
_cell_length_a   20.26531492
_cell_length_b   15.77939023
_cell_length_c   16.91467309
_cell_angle_alpha   90.00000000
_cell_angle_beta   90.00000000
_cell_angle_gamma   90.00000000
_symmetry_Int_Tables_number   1
_chemical_formula_structural   CuH10C16(NO)4
_chemical_formula_sum   'Cu12 H120 C192 N48 O48'
_cell_volume   5408.87795485
_cell_formula_units_Z   12
loop_
 _symmetry_equiv_pos_site_id
 _symmetry_equiv_pos_as_xyz
  1  'x, y, z'
loop_
 _atom_site_type_symbol
 _atom_site_label
 _atom_site_symmetry_multiplicity
 _atom_site_fract_x
 _atom_site_fract_y
 _atom_site_fract_z
 _atom_site_occupancy
  N  N0  1  0.12458756  0.34120513  0.31004262  1
  C  C1  1  0.16200831  0.10941854  0.42507492  1
  C  C2  1  0.21420697  0.16527138  0.40875386  1
  C  C3  1  0.20199707  0.24591598  0.37326597  1
  N  N4  1  0.02618582  0.35372366  0.44328372  1
  C  C5  1  0.09049559  0.23162009  0.41640463  1
  C  C6  1  0.13770763  0.27433151  0.36242148  1
  O  O7  1  0.13659514  0.35895237  0.05350949  1
  H  H8  1  0.17323444  0.11429989  0.05558679  1
  Cu  Cu9  1  0.10042814  0.43878181  0.41296528  1
  H  H10  1  0.03624503  0.30157596  0.32657452  1
  H  H11  1  0.17104749  0.04431407  0.44341346  1
  O  O12  1  0.03635356  0.39961195  0.24132260  1
  O  O13  1  0.14880666  0.22572850  0.14847402  1
  C  C14  1  0.06432028  0.35201635  0.29513428  1
  Cu  Cu15  1  0.09969825  0.31892532  0.14038655  1
  C  C16  1  0.09632741  0.13861704  0.42553401  1
  C  C17  1  0.21055303  0.23713113  0.15879599  1
  N  N18  1  0.05032354  0.07413863  0.42063915  1
  C  C19  1  0.03461670  0.26864009  0.45315843  1
  O  O20  1  0.20110070  0.44521350  0.12221171  1
  H  H21  1  0.05383739  0.48531743  0.11501924  1
  Cu  Cu22  1  0.19068757  0.39798418  0.22702254  1
  C  C23  1  0.18364584  0.41428935  0.05749434  1
  C  C24  1  0.22553786  0.11901325  0.06417312  1
  O  O25  1  0.23380041  0.29243925  0.20541229  1
  C  C26  1  0.01728954  0.45188094  0.07694615  1
  O  O27  1  0.17417844  0.49970280  0.41287966  1
  H  H28  1  0.24191450  0.28854984  0.35535378  1
  C  C29  1  0.13781808  0.38579404  0.60637739  1
  C  C30  1  0.19436584  0.41633798  0.57101087  1
  H  H31  1  0.15934268  0.34871038  0.91718014  1
  O  O32  1  0.21589986  0.37814895  0.77412136  1
  C  C33  1  0.18528193  0.27286634  0.56438206  1
  N  N34  1  0.13343532  0.30057519  0.60194380  1
  H  H35  1  0.09407670  0.41840115  0.63148833  1
  C  C36  1  0.19831948  0.39588114  0.91451039  1
  H  H37  1  0.21705033  0.47978812  0.55892022  1
  O  O38  1  0.22668761  0.08331655  0.76388562  1
  N  N39  1  0.22395599  0.34412473  0.54712887  1
  H  H40  1  0.20059760  0.20427120  0.55608381  1
  C  C41  1  0.23037266  0.41351706  0.84141038  1
  C  C42  1  0.23857410  0.00324506  0.96995964  1
  C  C43  1  0.21738620  0.43013154  0.98601080  1
  Cu  Cu44  1  0.24020023  0.27744741  0.73072236  1
  C  C45  1  0.00928710  0.47118382  0.99720238  1
  O  O46  1  0.04586489  0.52213364  0.46158300  1
  O  O47  1  0.15729729  0.88761962  0.40926398  1
  C  C48  1  0.15300981  0.88257307  0.47864278  1
  C  C49  1  0.04237215  0.60387438  0.44348233  1
  C  C50  1  0.18927501  0.53208212  0.34637998  1
  H  H51  1  0.07869839  0.76068349  0.40442556  1
  C  C52  1  0.23480375  0.60285729  0.34244174  1
  H  H53  1  0.21453123  0.61774351  0.21377361  1
  C  C54  1  0.09921178  0.74125717  0.46145107  1
  O  O55  1  0.01087630  0.63043171  0.38919131  1
  C  C56  1  0.24325641  0.63921491  0.26653244  1
  O  O57  1  0.16858077  0.50322167  0.28086499  1
  C  C58  1  0.08715678  0.66271303  0.49335232  1
  N  N59  1  0.18864679  0.90741248  0.84051027  1
  O  O60  1  0.15261806  0.57876774  0.70329931  1
  N  N61  1  0.08902954  0.70781560  0.83975366  1
  H  H62  1  0.20969184  0.80165064  0.60629067  1
  O  O63  1  0.04047025  0.55427074  0.88331847  1
  C  C64  1  0.14715634  0.68767142  0.88060059  1
  C  C65  1  0.17166208  0.76446265  0.57786444  1
  N  N66  1  0.01995435  0.58990162  0.72049891  1
  O  O67  1  0.22001892  0.68603671  0.72238963  1
  C  C68  1  0.17632997  0.64834593  0.68150215  1
  C  C69  1  0.15436209  0.92193209  0.90384832  1
  C  C70  1  0.11081541  0.63002244  0.56529764  1
  C  C71  1  0.15178687  0.68412273  0.60592912  1
  C  C72  1  0.14804154  0.95403715  0.62699506  1
  N  N73  1  0.13345916  0.88790696  0.67440032  1
  C  C74  1  0.06871944  0.86606046  0.67427023  1
  H  H75  1  0.10228162  0.92060836  0.88235321  1
  C  C76  1  0.05575121  0.53117138  0.95641729  1
  C  C77  1  0.20519075  0.73405874  0.88951779  1
  H  H78  1  0.13220028  0.63776511  0.92147834  1
  H  H79  1  0.10169064  0.99395835  0.61867972  1
  C  C80  1  0.09987511  0.76947238  0.78792268  1
  C  C81  1  0.02189234  0.89916092  0.61893350  1
  H  H82  1  0.15139535  0.78287407  0.78442927  1
  C  C83  1  0.05010529  0.81251124  0.74523219  1
  H  H84  1  0.03712085  0.93995526  0.57069470  1
  Cu  Cu85  1  0.10049726  0.56163344  0.79398322  1
  H  H86  1  0.04014472  0.60269218  0.66512651  1
  H  H87  1  0.10060908  0.56615057  0.58592536  1
  H  H88  1  0.18862146  0.98443188  0.66018871  1
  O  O89  1  0.15968596  0.94911906  0.52495072  1
  C  C90  1  0.23221803  0.88332529  0.88694143  1
  O  O91  1  0.17504434  0.99333691  0.96323480  1
  C  C92  1  0.13969565  0.79155673  0.51186314  1
  O  O93  1  0.09686602  0.56576262  0.99370200  1
  C  C94  1  0.43138595  0.13868520  0.10587627  1
  C  C95  1  0.32121294  0.18600001  0.13003222  1
  C  C96  1  0.33470551  0.07553261  0.02938046  1
  O  O97  1  0.47923383  0.08949169  0.05700011  1
  H  H98  1  0.27167883  0.42790758  0.41247778  1
  H  H99  1  0.34362047  0.23548305  0.16683904  1
  C  C100  1  0.36140924  0.13163081  0.08528770  1
  C  C101  1  0.41983536  0.32999227  0.45321147  1
  C  C102  1  0.34902330  0.47205672  0.29886918  1
  N  N103  1  0.38479128  0.10809022  0.40587306  1
  H  H104  1  0.34384684  0.21462622  0.35004982  1
  C  C105  1  0.30618823  0.39122060  0.44600530  1
  C  C106  1  0.33638732  0.15859938  0.38721975  1
  N  N107  1  0.27870610  0.12853602  0.42136510  1
  N  N108  1  0.38558171  0.41143265  0.33785972  1
  C  C109  1  0.26715576  0.06665411  0.02167127  1
  C  C110  1  0.36919209  0.37205294  0.41346089  1
  H  H111  1  0.46855211  0.33201104  0.29292073  1
  O  O112  1  0.45235189  0.18101108  0.15655859  1
  C  C113  1  0.29563779  0.05822016  0.46414790  1
  H  H114  1  0.46721636  0.31961642  0.42454715  1
  C  C115  1  0.36261795  0.04487657  0.45257265  1
  C  C116  1  0.43435469  0.38698012  0.28741623  1
  C  C117  1  0.49309752  0.31205432  0.01382603  1
  H  H118  1  0.49905743  0.13056143  0.40902105  1
  H  H119  1  0.46187903  0.31851169  0.06733081  1
  C  C120  1  0.43219455  0.43935985  0.22156308  1
  H  H121  1  0.46128371  0.44146920  0.16680822  1
  N  N122  1  0.37839210  0.48931552  0.22951510  1
  H  H123  1  0.30047069  0.49695444  0.31841999  1
  C  C124  1  0.25351705  0.17761817  0.11736645  1
  C  C125  1  0.27842033  0.47901333  0.84330578  1
  N  N126  1  0.33977782  0.29070274  0.75885775  1
  C  C127  1  0.39442001  0.25431343  0.78123818  1
  C  C128  1  0.37267069  0.06202997  0.64883268  1
  H  H129  1  0.37239378  0.12971392  0.63626743  1
  C  C130  1  0.32042605  0.03436910  0.69860517  1
  H  H131  1  0.49113723  0.37956846  0.60176670  1
  H  H132  1  0.40489058  0.42971437  0.58822585  1
  C  C133  1  0.39241974  0.47477302  0.63315505  1
  C  C134  1  0.38844683  0.34073518  0.78251583  1
  H  H135  1  0.32637010  0.26647931  0.61111861  1
  C  C136  1  0.29183345  0.34645272  0.51541553  1
  H  H137  1  0.39424816  0.20030463  0.82207729  1
  O  O138  1  0.26912235  0.17523842  0.68443807  1
  C  C139  1  0.40576131  0.29144380  0.52837258  1
  H  H140  1  0.45315481  0.22876101  0.62046415  1
  C  C141  1  0.48220308  0.02431042  0.57603174  1
  C  C142  1  0.41836977  0.05017714  0.82412108  1
  C  C143  1  0.33895042  0.29515424  0.55391175  1
  C  C144  1  0.27186863  0.10401641  0.72072235  1
  N  N145  1  0.45613444  0.25428045  0.56762455  1
  H  H146  1  0.38054898  0.39759790  0.82535668  1
  H  H147  1  0.48878613  0.01615416  0.72329778  1
  H  H148  1  0.37070408  0.01656131  0.82486509  1
  N  N149  1  0.43415008  0.09440571  0.89051993  1
  N  N150  1  0.43281128  0.49883507  0.69244211  1
  C  C151  1  0.49540828  0.11827016  0.88976552  1
  N  N152  1  0.47118856  0.31000950  0.94096894  1
  C  C153  1  0.47603420  0.05009051  0.77832022  1
  C  C154  1  0.42093855  0.00736020  0.62423355  1
  C  C155  1  0.26623420  0.49578011  0.98669228  1
  H  H156  1  0.26211884  0.01682591  0.50139111  1
  H  H157  1  0.36706098  0.03592998  0.99267750  1
  N  N158  1  0.41891268  0.89261068  0.11015833  1
  C  C159  1  0.28208559  0.71096985  0.26438744  1
  H  H160  1  0.34113319  0.80784125  0.32879124  1
  C  C161  1  0.43724618  0.89576775  0.03085921  1
  O  O162  1  0.27568334  0.72848244  0.12612466  1
  O  O163  1  0.34393897  0.82504280  0.18965974  1
  C  C164  1  0.31009226  0.75081303  0.33270551  1
  C  C165  1  0.36638280  0.85101320  0.12210845  1
  H  H166  1  0.28193134  0.53159583  0.03953486  1
  H  H167  1  0.47920136  0.94021477  0.02086123  1
  C  C168  1  0.30431285  0.70388672  0.40129430  1
  C  C169  1  0.26830675  0.62971344  0.41037101  1
  H  H170  1  0.34592897  0.82123184  0.06795768  1
  C  C171  1  0.29568448  0.74914040  0.18796076  1
  C  C172  1  0.34555783  0.73340177  0.47209391  1
  O  O173  1  0.38103037  0.79321787  0.46409683  1
  H  H174  1  0.39516549  0.99125870  0.47174225  1
  H  H175  1  0.25602696  0.60069856  0.46756013  1
  O  O176  1  0.47988055  0.51056654  0.48860296  1
  H  H177  1  0.43401779  0.58943570  0.78685918  1
  C  C178  1  0.33687008  0.52551980  0.64445761  1
  N  N179  1  0.34376660  0.57354108  0.71013592  1
  O  O180  1  0.49556103  0.61544984  0.58381599  1
  C  C181  1  0.40805785  0.56244170  0.73442657  1
  O  O182  1  0.40834650  0.75290822  0.68578965  1
  C  C183  1  0.36461218  0.80292624  0.71449744  1
  H  H184  1  0.45050608  0.87721543  0.61984899  1
  C  C185  1  0.36277306  0.89169797  0.69254581  1
  O  O186  1  0.33988662  0.69145850  0.53741630  1
  C  C187  1  0.34162703  0.59442482  0.92252930  1
  C  C188  1  0.41222188  0.92053958  0.64200258  1
  H  H189  1  0.30084548  0.77145035  0.91929623  1
  O  O190  1  0.35127066  0.64286210  0.86020884  1
  Cu  Cu191  1  0.40723422  0.66593592  0.61028641  1
  C  C192  1  0.31613553  0.95098880  0.72149916  1
  C  C193  1  0.29358626  0.51793655  0.91417642  1
  Cu  Cu194  1  0.29164265  0.66012863  0.78266322  1
  H  H195  1  0.28904766  0.52654044  0.61292339  1
  O  O196  1  0.27843674  0.95342201  0.93500347  1
  O  O197  1  0.32260662  0.77554421  0.76471253  1
  O  O198  1  0.36427539  0.60828355  0.98546999  1
  H  H199  1  0.27452815  0.93503643  0.75970664  1
  O  O200  1  0.41562204  0.86089357  0.97474236  1
  C  C201  1  0.25282869  0.79092940  0.89216491  1
  H  H202  1  0.29655815  0.50113501  0.78505349  1
  H  H203  1  0.52453843  0.26749715  0.16121677  1
  C  C204  1  0.61233002  0.29454330  0.22678822  1
  C  C205  1  0.71848202  0.06132648  0.35526380  1
  O  O206  1  0.66183601  0.09769547  0.12160338  1
  C  C207  1  0.60106357  0.28474291  0.37615213  1
  C  C208  1  0.67653968  0.01280987  0.41176636  1
  C  C209  1  0.69947562  0.07338280  0.27693516  1
  C  C210  1  0.52744242  0.18168843  0.37950566  1
  H  H211  1  0.64433448  0.32714365  0.39158117  1
  N  N212  1  0.58690340  0.06743530  0.02313913  1
  C  C213  1  0.73638197  0.10065075  0.14153226  1
  N  N214  1  0.58589549  0.26118625  0.30119181  1
  C  C215  1  0.57438365  0.29149527  0.15564708  1
  C  C216  1  0.70614634  0.34141027  0.14516033  1
  C  C217  1  0.60374654  0.31322918  0.08216650  1
  N  N218  1  0.56423759  0.23504680  0.42305451  1
  H  H219  1  0.55702888  0.13533726  0.12343246  1
  H  H220  1  0.70724188  0.31907578  0.27682604  1
  C  C221  1  0.64501028  0.07371207  0.05304899  1
  C  C222  1  0.67005354  0.33843784  0.07362829  1
  H  H223  1  0.65085293  0.05721311  0.25640559  1
  C  C224  1  0.54318159  0.19220237  0.30078200  1
  C  C225  1  0.67876073  0.31988673  0.22260376  1
  H  H226  1  0.52951287  0.15235623  0.24973159  1
  C  C227  1  0.54258874  0.09990551  0.06954649  1
  O  O228  1  0.70836805  0.41676577  0.39363407  1
  C  C229  1  0.62178198  0.49274389  0.45998745  1
  H  H230  1  0.69260842  0.35759958  0.01646731  1
  N  N231  1  0.56121110  0.30953139  0.01228200  1
  C  C232  1  0.68711632  0.48753246  0.43399915  1
  H  H233  1  0.67547655  0.05028914  0.00292134  1
  H  H234  1  0.58887386  0.43860495  0.44204799  1
  N  N235  1  0.69283792  0.12468278  0.63209073  1
  H  H236  1  0.59801706  0.15638007  0.92380345  1
  C  C237  1  0.61283456  0.35173250  0.74786681  1
  Cu  Cu238  1  0.54274060  0.24072641  0.54702247  1
  C  C239  1  0.57071850  0.33786485  0.67985298  1
  C  C240  1  0.50063589  0.46084952  0.70443320  1
  C  C241  1  0.70329681  0.44090268  0.85854922  1
  N  N242  1  0.57915664  0.26559766  0.63920012  1
  C  C243  1  0.62464620  0.15101929  0.86759291  1
  H  H244  1  0.60804658  0.21753649  0.65800453  1
  C  C245  1  0.61560155  0.10610909  0.72156862  1
  C  C246  1  0.72743788  0.48220348  0.92659774  1
  H  H247  1  0.52129493  0.29596422  0.82658580  1
  N  N248  1  0.63626177  0.45306882  0.85777833  1
  H  H249  1  0.70032692  0.19602478  0.97815437  1
  C  C250  1  0.68007819  0.13481540  0.70852223  1
  C  C251  1  0.59065280  0.11310728  0.79975070  1
  H  H252  1  0.58670356  0.07504380  0.67464253  1
  C  C253  1  0.52457041  0.30280213  0.89229751  1
  H  H254  1  0.72463193  0.41191190  0.80608106  1
  O  O255  1  0.50376599  0.09120258  0.55661482  1
  C  C256  1  0.58162622  0.30242903  0.93634480  1
  H  H257  1  0.65465356  0.31069540  0.76347407  1
  C  C258  1  0.68498634  0.18470749  0.85226356  1
  C  C259  1  0.59638981  0.42569599  0.78917072  1
  H  H260  1  0.63290630  0.30769873  0.91350062  1
  C  C261  1  0.72388877  0.17451011  0.77411113  1
  N  N262  1  0.52463351  0.09058501  0.82118702  1
  N  N263  1  0.71657919  0.21006342  0.92109173  1
  H  H264  1  0.51636503  0.15211336  0.93937503  1
  C  C265  1  0.51711028  0.39342472  0.65704182  1
  C  C266  1  0.53792550  0.47571653  0.77329476  1
  H  H267  1  0.74093441  0.13164054  0.54539317  1
  C  C268  1  0.72559094  0.55932685  0.45239152  1
  Cu  Cu269  1  0.56064499  0.96705707  0.46050437  1
  H  H270  1  0.53410126  0.68172385  0.44163200  1
  C  C271  1  0.58533076  0.79774032  0.45438015  1
  C  C272  1  0.56175839  0.73184670  0.41175572  1
  O  O273  1  0.63069276  0.52732447  0.18859619  1
  H  H274  1  0.57346204  0.72421783  0.34653413  1
  H  H275  1  0.65495445  0.68706687  0.06175477  1
  C  C276  1  0.65002944  0.73560756  0.01326201  1
  O  O277  1  0.62347262  0.98324467  0.38529628  1
  C  C278  1  0.59346134  0.55270144  0.15122566  1
  H  H279  1  0.74326291  0.60927400  0.24493502  1
  O  O280  1  0.69477661  0.99339193  0.48048168  1
  C  C281  1  0.69640129  0.62506374  0.49647707  1
  N  N282  1  0.60524818  0.85484369  0.49250578  1
  H  H283  1  0.61840866  0.81758853  0.75184624  1
  H  H284  1  0.55506189  0.83552644  0.89152368  1
  N  N285  1  0.58677374  0.69265461  0.71911494  1
  H  H286  1  0.66678954  0.69849353  0.63187257  1
  C  C287  1  0.69919639  0.76775476  0.96335721  1
  C  C288  1  0.69675872  0.90677436  0.71114313  1
  C  C289  1  0.64837787  0.65060715  0.81673368  1
  C  C290  1  0.59437406  0.55807530  0.50179385  1
  N  N291  1  0.67224766  0.91932362  0.63343417  1
  N  N292  1  0.66437136  0.80509269  0.90545003  1
  C  C293  1  0.52013056  0.55477391  0.51668519  1
  C  C294  1  0.64761290  0.68082999  0.69191429  1
  O  O295  1  0.71178226  0.76602377  0.54971085  1
  N  N296  1  0.68700253  0.65174683  0.75092219  1
  C  C297  1  0.59673351  0.80048355  0.92015213  1
  H  H298  1  0.61173765  0.68149167  0.55659341  1
  H  H299  1  0.66674153  0.63767291  0.87573421  1
  Cu  Cu300  1  0.59344745  0.87319692  0.60522777  1
  H  H301  1  0.67274636  0.98330474  0.62088634  1
  C  C302  1  0.62109422  0.50373169  0.91907960  1
  H  H303  1  0.54154448  0.69358434  0.83335765  1
  C  C304  1  0.63186286  0.62828437  0.52367661  1
  C  C305  1  0.58483886  0.67831772  0.79714770  1
  C  C306  1  0.66350294  0.85480440  0.76668873  1
  C  C307  1  0.69600798  0.85073902  0.84073378  1
  H  H308  1  0.53542821  0.60435747  0.61667203  1
  Cu  Cu309  1  0.70201813  0.88397410  0.51590400  1
  C  C310  1  0.73515347  0.70423630  0.50877909  1
  N  N311  1  0.58948554  0.75694619  0.98817167  1
  H  H312  1  0.52548196  0.52736217  0.81103346  1
  O  O313  1  0.50839459  0.95583926  0.54326466  1
  H  H314  1  0.57011172  0.52613284  0.93410508  1
  N  N315  1  0.67449681  0.51540191  0.96336592  1
  C  C316  1  0.78108850  0.09291293  0.38032913  1
  C  C317  1  0.82753616  0.12658858  0.32763771  1
  C  C318  1  0.91986103  0.30407145  0.41573985  1
  O  O319  1  0.81105088  0.47057627  0.36170543  1
  H  H320  1  0.94270631  0.43580101  0.44832087  1
  C  C321  1  0.90275348  0.23484342  0.39035795  1
  N  N322  1  0.77012268  0.37126035  0.14101943  1
  C  C323  1  0.89588609  0.14853555  0.36117955  1
  H  H324  1  0.85134859  0.13853693  0.19755129  1
  C  C325  1  0.81480022  0.12429335  0.24638149  1
  C  C326  1  0.91407138  0.36414633  0.07531882  1
  H  H327  1  0.98818483  0.18063910  0.39712806  1
  H  H328  1  0.88022973  0.31860802  0.10639994  1
  C  C329  1  0.95971049  0.36777744  0.44239748  1
  N  N330  1  0.93396407  0.08017542  0.37137920  1
  O  O331  1  0.93777792  0.32167151  0.22828748  1
  C  C332  1  0.96938213  0.39986926  0.11453834  1
  H  H333  1  0.79456908  0.10043417  0.44323415  1
  C  C334  1  0.97318048  0.36910847  0.19723222  1
  H  H335  1  0.79805611  0.39180532  0.18754759  1
  H  H336  1  0.79083223  0.40460859  0.09368575  1
  H  H337  1  0.81055056  0.28349262  0.03379122  1
  H  H338  1  0.91567757  0.02258746  0.35525768  1
  C  C339  1  0.77559095  0.41211302  0.35908973  1
  H  H340  1  0.79417602  0.35314546  0.32921951  1
  O  O341  1  0.77487206  0.10711751  0.09088955  1
  C  C342  1  0.99392143  0.10834372  0.39787000  1
  H  H343  1  0.99151500  0.24014454  0.48782843  1
  C  C344  1  0.75147771  0.09601389  0.22683186  1
  C  C345  1  0.75486144  0.12890769  0.60643419  1
  N  N346  1  0.81269895  0.28968157  0.97291333  1
  C  C347  1  0.95872971  0.43424600  0.95450899  1
  H  H348  1  0.86974199  0.43759968  0.75516171  1
  H  H349  1  0.76387598  0.13021366  0.79271202  1
  C  C350  1  0.85938005  0.34323485  0.94143249  1
  C  C351  1  0.77214863  0.25402913  0.92077425  1
  C  C352  1  0.85926939  0.36583627  0.86126344  1
  C  C353  1  0.84792059  0.37995810  0.78295687  1
  C  C354  1  0.94912443  0.04078348  0.79050857  1
  C  C355  1  0.87769863  0.13146855  0.58685744  1
  H  H356  1  0.95140550  0.45425307  0.89243017  1
  C  C357  1  0.79754096  0.32653050  0.74191851  1
  O  O358  1  0.80881459  0.12110204  0.64098391  1
  N  N359  1  0.75249359  0.31241804  0.69279677  1
  H  H360  1  0.79065379  0.26956665  0.85942402  1
  O  O361  1  0.93000773  0.10455191  0.59892929  1
  N  N362  1  0.93983717  0.02740527  0.86757268  1
  H  H363  1  0.85939711  0.18500698  0.54540569  1
  C  C364  1  0.89263681  0.01029596  0.75025246  1
  H  H365  1  0.87615729  0.01126632  0.68925297  1
  H  H366  1  0.77891709  0.49601494  0.94975730  1
  C  C367  1  0.75351146  0.25435302  0.74481485  1
  H  H368  1  0.98927938  0.07989943  0.76825003  1
  C  C369  1  0.91183654  0.37987994  0.99400035  1
  C  C370  1  0.77876582  0.60398087  0.19687697  1
  O  O371  1  0.78745363  0.70846519  0.47648858  1
  C  C372  1  0.83342277  0.60310481  0.14923335  1
  C  C373  1  0.82621256  0.60392923  0.06018180  1
  C  C374  1  0.86813546  0.83305724  0.07726614  1
  C  C375  1  0.76971681  0.59592246  0.11609998  1
  H  H376  1  0.90052484  0.66584647  0.47852842  1
  H  H377  1  0.77471198  0.56571082  0.43251116  1
  H  H378  1  0.83137994  0.96442228  0.41761941  1
  O  O379  1  0.87086284  0.83039031  0.01442198  1
  C  C380  1  0.85038338  0.93398341  0.47375521  1
  H  H381  1  0.96138001  0.95766541  0.49619012  1
  N  N382  1  0.86743687  0.66407117  0.52238023  1
  C  C383  1  0.85779964  0.62903239  0.66382853  1
  H  H384  1  0.88284406  0.83929531  0.73261760  1
  C  C385  1  0.78699137  0.93920404  0.79800721  1
  C  C386  1  0.83837827  0.87166683  0.58825459  1
  C  C387  1  0.95567080  0.88149862  0.63710954  1
  C  C388  1  0.93367421  0.84370176  0.71123214  1
  N  N389  1  0.95603099  0.77350810  0.83589862  1
  H  H390  1  0.90560775  0.76978789  0.83926494  1
  C  C391  1  0.89476499  0.61449378  0.73698409  1
  C  C392  1  0.75604338  0.89000855  0.86100128  1
  C  C393  1  0.86005570  0.61951214  0.81547785  1
  C  C394  1  0.78995750  0.61871542  0.81561094  1
  N  N395  1  0.89972643  0.62177447  0.87844083  1
  C  C396  1  0.87716142  0.61644251  0.95290090  1
  H  H397  1  0.96939822  0.80885682  0.88657309  1
  N  N398  1  0.90273770  0.89409136  0.58054239  1
  C  C399  1  0.78770816  0.63065325  0.66856973  1
  C  C400  1  0.75952616  0.94458041  0.72214709  1
  H  H401  1  0.81864642  0.83504473  0.63739474  1
  C  C402  1  0.97978871  0.81463914  0.76502084  1
  C  C403  1  0.96181521  0.60316313  0.72337759  1
  C  C404  1  0.89421818  0.63329505  0.58665972  1
  H  H405  1  0.85968922  0.97736708  0.93758034  1
  H  H406  1  0.76545228  0.62790780  0.87282188  1
  H  H407  1  0.94653191  0.62064348  0.57424431  1
  N  N408  1  0.82089576  0.60145955  0.98553178  1
  H  H409  1  0.77278004  0.88947965  0.92358615  1
  H  H410  1  0.75166001  0.77528307  0.97139352  1
  C  C411  1  0.75621276  0.62643850  0.74318813  1
  N  N412  1  0.80594353  0.90026541  0.52473636  1
  Cu  Cu413  1  0.99843980  0.65410948  0.85582455  1
  C  C414  1  0.91179384  0.93340754  0.50919223  1
  H  H415  1  0.78380664  0.98110112  0.67413266  1
  H  H416  1  0.75733564  0.63581584  0.61496627  1
  N  N417  1  0.85148721  0.97899875  0.80753538  1
  C  C418  1  0.88097779  0.99280032  0.87960372  1
  H  H419  1  0.91972097  0.61463445  0.98893670  1
