# generated using pymatgen
data_Zn2H4C9O7
_symmetry_space_group_name_H-M   'P 1'
_cell_length_a   23.02265956
_cell_length_b   17.93092350
_cell_length_c   10.65880487
_cell_angle_alpha   90.00000000
_cell_angle_beta   90.00000000
_cell_angle_gamma   90.00000000
_symmetry_Int_Tables_number   1
_chemical_formula_structural   Zn2H4C9O7
_chemical_formula_sum   'Zn32 H64 C144 O112'
_cell_volume   4400.14168221
_cell_formula_units_Z   16
loop_
 _symmetry_equiv_pos_site_id
 _symmetry_equiv_pos_as_xyz
  1  'x, y, z'
loop_
 _atom_site_type_symbol
 _atom_site_label
 _atom_site_symmetry_multiplicity
 _atom_site_fract_x
 _atom_site_fract_y
 _atom_site_fract_z
 _atom_site_occupancy
  C  C0  1  0.19577818  0.26768081  0.43846436  1
  C  C1  1  0.10960870  0.14356154  0.02866560  1
  C  C2  1  0.23877922  0.40700970  0.17044963  1
  H  H3  1  0.10624275  0.05243566  0.40469798  1
  C  C4  1  0.06489119  0.02338769  0.38982805  1
  O  O5  1  0.12769402  0.34968692  0.19838205  1
  Zn  Zn6  1  0.18001279  0.04808248  0.19566380  1
  O  O7  1  0.18640809  0.12392051  0.35680915  1
  C  C8  1  0.01110890  0.05874565  0.38843747  1
  C  C9  1  0.18809041  0.44917001  0.16899084  1
  C  C10  1  0.12891285  0.41473109  0.17647980  1
  H  H11  1  0.15155880  0.24461187  0.41488765  1
  O  O12  1  0.04521522  0.17602560  0.45066309  1
  O  O13  1  0.10829322  0.08820013  0.10042315  1
  O  O14  1  0.08106586  0.45505808  0.17212107  1
  H  H15  1  0.00090634  0.10850127  0.10457932  1
  C  C16  1  0.00189857  0.15790012  0.04322009  1
  H  H17  1  0.23655647  0.34789170  0.18104172  1
  H  H18  1  0.01701042  0.28915830  0.33299070  1
  C  C19  1  0.13784989  0.37593302  0.49747916  1
  O  O20  1  0.09329424  0.33499457  0.48571230  1
  C  C21  1  0.24557879  0.22554960  0.42892550  1
  C  C22  1  0.23534344  0.14545270  0.38890609  1
  C  C23  1  0.00203216  0.13974454  0.41588424  1
  C  C24  1  0.19831808  0.34247699  0.48320827  1
  C  C25  1  0.19574894  0.46704434  0.86225541  1
  O  O26  1  0.10230700  0.16975832  0.70891188  1
  H  H27  1  0.15587680  0.43341594  0.87997705  1
  C  C28  1  0.05388510  0.24566119  0.91455230  1
  O  O29  1  0.15521306  0.06976000  0.68865747  1
  O  O30  1  0.21116623  0.31264468  0.88896693  1
  H  H31  1  0.09706226  0.26618032  0.87554098  1
  Zn  Zn32  1  0.05649517  0.25523535  0.60692711  1
  C  C33  1  0.10564205  0.09975278  0.69045210  1
  Zn  Zn34  1  0.18079033  0.20831326  0.80234171  1
  C  C35  1  0.05175298  0.05117787  0.67824556  1
  O  O36  1  0.04501731  0.35271704  0.72843979  1
  H  H37  1  0.01430630  0.46046449  0.63073176  1
  O  O38  1  0.13558556  0.43978235  0.53157816  1
  C  C39  1  0.24967903  0.43310087  0.85265792  1
  H  H40  1  0.24991757  0.42673907  0.55563605  1
  C  C41  1  0.00660056  0.35501142  0.81258389  1
  C  C42  1  0.00359180  0.28525975  0.89680060  1
  C  C43  1  0.05448854  0.18168296  0.99198127  1
  O  O44  1  0.15899845  0.16394131  0.98724067  1
  O  O45  1  0.16110918  0.95225501  0.30911387  1
  Zn  Zn46  1  0.17511020  0.78638307  0.14777772  1
  C  C47  1  0.13798897  0.65376675  0.44248944  1
  C  C48  1  0.11641707  0.91183746  0.31342991  1
  H  H49  1  0.23409282  0.80585689  0.31231696  1
  O  O50  1  0.24640747  0.82877913  0.23639569  1
  C  C51  1  0.19159734  0.52607267  0.14495448  1
  O  O52  1  0.11488287  0.84587708  0.27707409  1
  C  C53  1  0.06283057  0.95069365  0.34632013  1
  H  H54  1  0.14970882  0.55596331  0.12706362  1
  O  O55  1  0.19398178  0.67448169  0.10109510  1
  C  C56  1  0.19625692  0.69106352  0.45351066  1
  Zn  Zn57  1  0.06840012  0.51495891  0.42836657  1
  O  O58  1  0.13580788  0.59190784  0.38699652  1
  H  H59  1  0.01330471  0.85320510  0.28500737  1
  O  O60  1  0.02304506  0.63755355  0.09463508  1
  C  C61  1  0.24604237  0.55907222  0.13112238  1
  C  C62  1  0.01828512  0.71774543  0.03602333  1
  C  C63  1  0.24259873  0.64092762  0.10980918  1
  O  O64  1  0.09360839  0.68059795  0.49396541  1
  H  H65  1  0.24352218  0.59441516  0.38064222  1
  C  C66  1  0.24581450  0.65384358  0.41591178  1
  C  C67  1  0.01213232  0.91187990  0.31431268  1
  C  C68  1  0.19111775  0.76545696  0.49874994  1
  Zn  Zn69  1  0.08910287  0.71165532  0.68711197  1
  O  O70  1  0.19972068  0.90519553  0.61226052  1
  C  C71  1  0.19415850  0.54367781  0.84299339  1
  Zn  Zn72  1  0.18700314  0.97177717  0.78198176  1
  O  O73  1  0.13219829  0.64876103  0.81817050  1
  C  C74  1  0.13494010  0.57963438  0.83600468  1
  C  C75  1  0.05660700  0.97414236  0.65356837  1
  O  O76  1  0.11602935  0.93161672  0.87506130  1
  O  O77  1  0.16679610  0.83873974  0.96093214  1
  H  H78  1  0.09830810  0.94547774  0.65201424  1
  Zn  Zn79  1  0.00130576  0.53503447  0.78780068  1
  H  H80  1  0.01217045  0.92291507  0.89526572  1
  C  C81  1  0.11941485  0.86779193  0.92543785  1
  O  O82  1  0.09153343  0.54147945  0.85356352  1
  O  O83  1  0.05424084  0.82087888  0.64467764  1
  H  H84  1  0.15050724  0.79599487  0.51602936  1
  H  H85  1  0.23494355  0.65066238  0.81943278  1
  C  C86  1  0.24212119  0.59034519  0.83000216  1
  C  C87  1  0.00469105  0.93647424  0.64669458  1
  C  C88  1  0.06407289  0.82629205  0.94850252  1
  C  C89  1  0.01073171  0.86210616  0.92705804  1
  O  O90  1  0.00748153  0.50840659  0.59094290  1
  C  C91  1  0.24622137  0.87743552  0.57150699  1
  C  C92  1  0.24344529  0.80005760  0.51724456  1
  O  O93  1  0.00590765  0.65534194  0.70268922  1
  C  C94  1  0.00685634  0.85295984  0.64325018  1
  H  H95  1  0.11313821  0.72405176  0.99803185  1
  C  C96  1  0.06890505  0.75400730  0.99669951  1
  Zn  Zn97  1  0.42333953  0.28625505  0.31644307  1
  H  H98  1  0.28201825  0.02947947  0.20559516  1
  O  O99  1  0.27742793  0.10284362  0.37674385  1
  O  O100  1  0.26142786  0.02308382  0.12855789  1
  C  C101  1  0.29313732  0.44193677  0.16175310  1
  O  O102  1  0.35617114  0.33283723  0.19412016  1
  C  C103  1  0.44101615  0.02855953  0.33854105  1
  O  O104  1  0.39204685  0.44084784  0.14689292  1
  O  O105  1  0.45301647  0.18174971  0.39190788  1
  H  H106  1  0.49834459  0.26816403  0.17570427  1
  C  C107  1  0.34875079  0.40108223  0.16991727  1
  H  H108  1  0.40092411  0.05977394  0.34001945  1
  C  C109  1  0.29872520  0.25208305  0.46177081  1
  O  O110  1  0.38842453  0.08751878  0.04202577  1
  C  C111  1  0.45186283  0.18836152  0.00020390  1
  O  O112  1  0.49485649  0.47556369  0.36565467  1
  H  H113  1  0.33899959  0.21819815  0.47526766  1
  H  H114  1  0.49793668  0.08699839  0.04666066  1
  C  C115  1  0.49865786  0.14469917  0.37870671  1
  C  C116  1  0.49533848  0.06321328  0.34778663  1
  Zn  Zn117  1  0.31578972  0.01427903  0.47470647  1
  C  C118  1  0.35762546  0.36160957  0.54036269  1
  Zn  Zn119  1  0.33804755  0.22781682  0.76581066  1
  Zn  Zn120  1  0.42963327  0.45726592  0.71104743  1
  H  H121  1  0.34360653  0.44879685  0.81841729  1
  C  C122  1  0.44821222  0.04956442  0.65825215  1
  H  H123  1  0.40816975  0.29157481  0.95891855  1
  C  C124  1  0.30017057  0.47510827  0.82765609  1
  O  O125  1  0.39463404  0.16545017  0.66240432  1
  C  C126  1  0.39294932  0.09492264  0.66228834  1
  O  O127  1  0.46034174  0.40747510  0.87969336  1
  O  O128  1  0.35997894  0.42449739  0.59711464  1
  O  O129  1  0.34495271  0.06254148  0.65061100  1
  O  O130  1  0.30604454  0.32367679  0.86667051  1
  O  O131  1  0.40288405  0.32805519  0.51045709  1
  C  C132  1  0.30123826  0.32709598  0.50285476  1
  C  C133  1  0.45079161  0.26388721  0.97055741  1
  Zn  Zn134  1  0.32360825  0.00367541  0.98185367  1
  O  O135  1  0.25529305  0.20089690  0.70521945  1
  C  C136  1  0.25561172  0.34946432  0.86556604  1
  C  C137  1  0.25088453  0.37300469  0.51545266  1
  H  H138  1  0.25121300  0.22910862  0.63309610  1
  O  O139  1  0.35119412  0.18953504  0.95655699  1
  C  C140  1  0.39371912  0.15200698  0.99738359  1
  C  C141  1  0.29737552  0.69322279  0.43436554  1
  Zn  Zn142  1  0.32329969  0.78125754  0.16362090  1
  C  C143  1  0.44310691  0.95174074  0.31640151  1
  O  O144  1  0.28893826  0.67891570  0.09879648  1
  O  O145  1  0.37490502  0.84895234  0.28576434  1
  O  O146  1  0.34323420  0.96095831  0.31357852  1
  H  H147  1  0.39853621  0.71380543  0.04495724  1
  O  O148  1  0.44203708  0.60015825  0.13471499  1
  Zn  Zn149  1  0.42888987  0.52473290  0.28793937  1
  C  C150  1  0.35307009  0.64998104  0.42840862  1
  O  O151  1  0.35526008  0.58731249  0.37775527  1
  H  H152  1  0.33877680  0.54950783  0.12211912  1
  C  C153  1  0.38566907  0.91608768  0.29755765  1
  C  C154  1  0.29742223  0.51818106  0.13660878  1
  C  C155  1  0.44248650  0.73835414  0.01476960  1
  O  O156  1  0.39472038  0.67961210  0.48498284  1
  H  H157  1  0.48863694  0.85095436  0.29055240  1
  C  C158  1  0.49006962  0.62636793  0.10543314  1
  C  C159  1  0.49288812  0.91033146  0.29941248  1
  C  C160  1  0.49340485  0.70074021  0.04892410  1
  C  C161  1  0.29596795  0.76312880  0.48543113  1
  Zn  Zn162  1  0.41831344  0.70818249  0.67244856  1
  C  C163  1  0.49984931  0.84143257  0.92738715  1
  O  O164  1  0.34710111  0.66157928  0.76571605  1
  H  H165  1  0.41033467  0.93916874  0.62702747  1
  O  O166  1  0.39838575  0.56044914  0.81048555  1
  C  C167  1  0.29456768  0.55281938  0.82006878  1
  C  C168  1  0.44948221  0.97192828  0.64915643  1
  C  C169  1  0.34986198  0.59219852  0.79373725  1
  O  O170  1  0.45724027  0.81755742  0.61861086  1
  O  O171  1  0.29286531  0.91086812  0.57661630  1
  C  C172  1  0.44707052  0.80973863  0.95780119  1
  O  O173  1  0.38771590  0.91969622  0.92494943  1
  C  C174  1  0.38997749  0.85152074  0.94609039  1
  H  H175  1  0.33722588  0.78849764  0.51514527  1
  H  H176  1  0.28593865  0.99590899  0.76583909  1
  O  O177  1  0.26635767  0.99486489  0.83926677  1
  O  O178  1  0.49654189  0.65692792  0.74821512  1
  O  O179  1  0.34295646  0.81711175  0.96464441  1
  Zn  Zn180  1  0.57337503  0.28226226  0.33830065  1
  O  O181  1  0.59911291  0.44632760  0.19555088  1
  H  H182  1  0.58591035  0.05827356  0.32687860  1
  C  C183  1  0.69354485  0.25620139  0.48057780  1
  Zn  Zn184  1  0.67247925  0.04369447  0.21372633  1
  O  O185  1  0.54998375  0.16975335  0.38531141  1
  H  H186  1  0.64914244  0.23018625  0.47268924  1
  O  O187  1  0.69778896  0.11103906  0.37240567  1
  C  C188  1  0.64295620  0.40703938  0.21740701  1
  O  O189  1  0.60895329  0.08054092  0.08012679  1
  C  C190  1  0.70095809  0.44662973  0.21327506  1
  O  O191  1  0.63837178  0.33787466  0.23755267  1
  C  C192  1  0.54619615  0.02544921  0.32547643  1
  H  H193  1  0.51075913  0.45602583  0.29431968  1
  C  C194  1  0.61062439  0.14740476  0.04468090  1
  C  C195  1  0.74467986  0.21799641  0.45785043  1
  C  C196  1  0.74496014  0.13908780  0.40795551  1
  O  O197  1  0.65620966  0.18296062  0.01999973  1
  C  C198  1  0.50190020  0.14923653  0.02693884  1
  C  C199  1  0.55501115  0.18815677  0.01766764  1
  H  H200  1  0.74892818  0.00425297  0.05151055  1
  O  O201  1  0.50178639  0.30816512  0.23045769  1
  C  C202  1  0.55562594  0.26182654  0.98077148  1
  C  C203  1  0.70468940  0.48117992  0.85952562  1
  H  H204  1  0.65774574  0.45772004  0.86478271  1
  C  C205  1  0.55613901  0.04426005  0.66941270  1
  O  O206  1  0.70457023  0.32927962  0.86036628  1
  Zn  Zn207  1  0.67815576  0.21938536  0.81906275  1
  O  O208  1  0.62976673  0.42730143  0.58619997  1
  C  C209  1  0.61094745  0.08970112  0.69440694  1
  O  O210  1  0.65726384  0.05225144  0.68726312  1
  O  O211  1  0.61047576  0.15709725  0.72117322  1
  O  O212  1  0.55414924  0.41682777  0.90354218  1
  H  H213  1  0.54098025  0.49872779  0.70075072  1
  C  C214  1  0.50357178  0.08130144  0.67541990  1
  C  C215  1  0.74942407  0.36197060  0.55485355  1
  H  H216  1  0.59570239  0.29000985  0.97749638  1
  C  C217  1  0.69656365  0.32874552  0.53194116  1
  H  H218  1  0.74955220  0.04508750  0.85047673  1
  C  C219  1  0.50422147  0.29940260  0.94843959  1
  H  H220  1  0.50646245  0.14071499  0.68987887  1
  C  C221  1  0.63710576  0.36183728  0.54971351  1
  C  C222  1  0.50790367  0.37822804  0.90490953  1
  O  O223  1  0.59390913  0.32143695  0.52277964  1
  C  C224  1  0.60331164  0.90654607  0.28517383  1
  Zn  Zn225  1  0.67440330  0.78046216  0.19509343  1
  H  H226  1  0.66032135  0.56081783  0.21771085  1
  O  O227  1  0.70512002  0.66910907  0.16256681  1
  C  C228  1  0.63924230  0.63881170  0.46554240  1
  O  O229  1  0.65146211  0.93726417  0.29520799  1
  O  O230  1  0.53656688  0.59480043  0.13359568  1
  C  C231  1  0.69677789  0.67412222  0.48771740  1
  O  O232  1  0.59886129  0.83704334  0.27844490  1
  C  C233  1  0.69874723  0.52467968  0.20204710  1
  C  C234  1  0.54611601  0.94789585  0.30225441  1
  C  C235  1  0.54619674  0.73765465  0.02200063  1
  O  O236  1  0.63171977  0.57343682  0.42498228  1
  H  H237  1  0.58530769  0.69977211  0.04969319  1
  O  O238  1  0.59262844  0.67561564  0.49224940  1
  Zn  Zn239  1  0.58365049  0.50246047  0.02363694  1
  Zn  Zn240  1  0.57222235  0.70884673  0.69365668  1
  C  C241  1  0.55642657  0.96756481  0.64430715  1
  C  C242  1  0.69630720  0.74648610  0.53828289  1
  H  H243  1  0.65410718  0.77388501  0.54592102  1
  H  H244  1  0.59639612  0.93419566  0.63995679  1
  Zn  Zn245  1  0.67134845  0.95288183  0.79361585  1
  O  O246  1  0.55222319  0.81221870  0.62812181  1
  O  O247  1  0.70195075  0.89658887  0.62948996  1
  C  C248  1  0.70837964  0.55752846  0.84668907  1
  O  O249  1  0.65080765  0.66018530  0.78355129  1
  O  O250  1  0.60648023  0.90535997  0.89404972  1
  O  O251  1  0.60543432  0.56843972  0.87680312  1
  C  C252  1  0.65205915  0.59965794  0.83706517  1
  O  O253  1  0.74603939  0.99735996  0.88461417  1
  C  C254  1  0.60974304  0.84535829  0.95466598  1
  Zn  Zn255  1  0.56681997  0.50615649  0.50117908  1
  C  C256  1  0.55196173  0.80719247  0.97141274  1
  O  O257  1  0.65547054  0.82133112  0.99925895  1
  O  O258  1  0.50817805  0.51507579  0.64962718  1
  H  H259  1  0.50319642  0.60988020  0.71907272  1
  C  C260  1  0.74784369  0.85771232  0.62732761  1
  C  C261  1  0.74782722  0.78157588  0.56764052  1
  C  C262  1  0.50547613  0.84953928  0.62699593  1
  C  C263  1  0.50224284  0.93255634  0.64161327  1
  H  H264  1  0.50338960  0.89612145  0.88244243  1
  Zn  Zn265  1  0.91808479  0.26878839  0.34457251  1
  O  O266  1  0.86230912  0.33458364  0.19615121  1
  C  C267  1  0.95930949  0.01959109  0.36299523  1
  C  C268  1  0.89580906  0.15804182  0.05181202  1
  Zn  Zn269  1  0.82609721  0.05272994  0.21709866  1
  H  H270  1  0.91657524  0.05111318  0.36686665  1
  C  C271  1  0.80333644  0.44387555  0.18830501  1
  O  O272  1  0.75210861  0.02748544  0.13405240  1
  O  O273  1  0.95046554  0.16413635  0.41084628  1
  C  C274  1  0.75216315  0.40557252  0.20668306  1
  O  O275  1  0.90641464  0.43543064  0.14874408  1
  O  O276  1  0.90083132  0.10250957  0.12928820  1
  O  O277  1  0.79106252  0.10563946  0.38665427  1
  C  C278  1  0.86024380  0.40263096  0.18212984  1
  H  H279  1  0.83662143  0.21590199  0.46682322  1
  O  O280  1  0.84683236  0.17757537  0.01619974  1
  Zn  Zn281  1  0.99479446  0.41591385  0.20224406  1
  C  C282  1  0.79852581  0.24991291  0.48507131  1
  C  C283  1  0.95112116  0.19477776  0.00954284  1
  O  O284  1  0.99015895  0.30843919  0.27299361  1
  O  O285  1  0.98854062  0.48493948  0.36652730  1
  H  H286  1  0.75406870  0.34362138  0.21689105  1
  H  H287  1  0.85188783  0.44045302  0.85658425  1
  Zn  Zn288  1  0.82413263  0.21429536  0.82173110  1
  O  O289  1  0.80174253  0.32613015  0.87511701  1
  C  C290  1  0.94528873  0.04484112  0.68477819  1
  O  O291  1  0.84105449  0.05956761  0.69465075  1
  C  C292  1  0.89051098  0.08706433  0.70268955  1
  C  C293  1  0.81195248  0.47432502  0.85125652  1
  O  O294  1  0.89250792  0.15611406  0.72779879  1
  O  O295  1  0.86762314  0.41691862  0.59797815  1
  H  H296  1  0.90755010  0.28804077  0.91533514  1
  C  C297  1  0.94926631  0.26137736  0.93929790  1
  C  C298  1  0.85936034  0.35090624  0.56590306  1
  O  O299  1  0.97598796  0.41006005  0.82510962  1
  C  C300  1  0.75799614  0.44123178  0.85945982  1
  C  C301  1  0.80084623  0.32112161  0.53675749  1
  O  O302  1  0.75436792  0.17084172  0.76074108  1
  H  H303  1  0.76258188  0.16885953  0.67334283  1
  C  C304  1  0.75449756  0.35752948  0.86982540  1
  H  H305  1  0.99673802  0.14468263  0.71876440  1
  C  C306  1  0.99873646  0.08391422  0.69140703  1
  H  H307  1  0.75095844  0.41852882  0.59310814  1
  O  O308  1  0.90115777  0.30877719  0.53391972  1
  Zn  Zn309  1  0.92169698  0.49616915  0.50564069  1
  C  C310  1  0.97910466  0.61866848  0.14351533  1
  Zn  Zn311  1  0.83501131  0.77754044  0.18548855  1
  C  C312  1  0.89920848  0.91083603  0.31437142  1
  H  H313  1  0.84491517  0.54716205  0.12681603  1
  C  C314  1  0.80482623  0.52059063  0.16145266  1
  O  O315  1  0.89360250  0.84142316  0.29614443  1
  H  H316  1  0.92615449  0.72145891  0.04095770  1
  C  C317  1  0.95773060  0.94351487  0.33531964  1
  O  O318  1  0.79979350  0.67047402  0.13204631  1
  O  O319  1  0.85824336  0.95663928  0.32614076  1
  O  O320  1  0.85821377  0.57520563  0.43701806  1
  O  O321  1  0.93723235  0.59882734  0.19345661  1
  C  C322  1  0.75036328  0.64206072  0.46150941  1
  C  C323  1  0.96556713  0.75400275  0.02175267  1
  H  H324  1  0.97754087  0.52264027  0.30648349  1
  C  C325  1  0.85829738  0.64069063  0.47644392  1
  C  C326  1  0.80048458  0.67987099  0.49391150  1
  H  H327  1  0.75533447  0.58309102  0.42111197  1
  H  H328  1  0.75441138  0.83419399  0.31288366  1
  O  O329  1  0.75269345  0.82395274  0.22800960  1
  C  C330  1  0.75304575  0.63955871  0.15426035  1
  C  C331  1  0.75252866  0.55613435  0.17721914  1
  Zn  Zn332  1  0.92418734  0.71654403  0.69746697  1
  C  C333  1  0.81212859  0.55405833  0.83774497  1
  O  O334  1  0.91409066  0.55173881  0.85640325  1
  O  O335  1  0.95844696  0.82122571  0.62756230  1
  O  O336  1  0.79367136  0.88718284  0.65950595  1
  O  O337  1  0.87302426  0.66188749  0.83468844  1
  H  H338  1  0.91232222  0.93408186  0.65867991  1
  O  O339  1  0.89354061  0.92342224  0.91971984  1
  C  C340  1  0.80261790  0.74856635  0.55376882  1
  C  C341  1  0.86976223  0.59233286  0.84139541  1
  H  H342  1  0.84430067  0.77469895  0.58793877  1
  H  H343  1  0.76599449  0.65901290  0.81564811  1
  Zn  Zn344  1  0.82117403  0.96491693  0.81528788  1
  C  C345  1  0.90152202  0.85770690  0.95582080  1
  C  C346  1  0.94932278  0.96973350  0.65976917  1
  O  O347  1  0.90344396  0.67562027  0.50967339  1
  C  C348  1  0.96127592  0.82552678  0.96303337  1
  C  C349  1  0.76165173  0.59504856  0.83072117  1
  O  O350  1  0.86001205  0.81978848  0.99253034  1
  H  H351  1  0.99782710  0.65381606  0.61278988  1
