# generated using pymatgen
data_CuH4C9(NO)4
_symmetry_space_group_name_H-M   'P 1'
_cell_length_a   19.01757866
_cell_length_b   24.46832587
_cell_length_c   12.96523880
_cell_angle_alpha   90.00000000
_cell_angle_beta   90.00000000
_cell_angle_gamma   90.00000000
_symmetry_Int_Tables_number   1
_chemical_formula_structural   CuH4C9(NO)4
_chemical_formula_sum   'Cu16 H64 C144 N64 O64'
_cell_volume   6033.09268417
_cell_formula_units_Z   16
loop_
 _symmetry_equiv_pos_site_id
 _symmetry_equiv_pos_as_xyz
  1  'x, y, z'
loop_
 _atom_site_type_symbol
 _atom_site_label
 _atom_site_symmetry_multiplicity
 _atom_site_fract_x
 _atom_site_fract_y
 _atom_site_fract_z
 _atom_site_occupancy
  H  H0  1  0.09518981  0.03182726  0.38355105  1
  C  C1  1  0.02971659  0.09320351  0.32139690  1
  C  C2  1  0.08087363  0.07326416  0.38900554  1
  C  C3  1  0.09474299  0.16581589  0.46786188  1
  C  C4  1  0.02410063  0.24242981  0.39880364  1
  N  N5  1  0.41973362  0.01046571  0.13999984  1
  O  O6  1  0.12973627  0.10865435  0.10555014  1
  C  C7  1  0.04177990  0.18441099  0.40165146  1
  C  C8  1  0.11263048  0.11004768  0.45791104  1
  O  O9  1  0.03091558  0.00527450  0.24704901  1
  C  C10  1  0.01241190  0.14852720  0.32990428  1
  H  H11  1  0.19157271  0.01598025  0.06733004  1
  C  C12  1  0.00159899  0.05365795  0.24225220  1
  H  H13  1  0.22235866  0.08503679  0.47562433  1
  C  C14  1  0.10695405  0.10384778  0.02033384  1
  C  C15  1  0.30089055  0.03553754  0.77792045  1
  H  H16  1  0.30822561  0.17259107  0.91351920  1
  H  H17  1  0.14398200  0.12969102  0.68330029  1
  C  C18  1  0.24412791  0.06873370  0.75402770  1
  N  N19  1  0.19328609  0.15254507  0.83057252  1
  C  C20  1  0.35905751  0.09634839  0.88616652  1
  O  O21  1  0.46045355  0.07189917  0.97456145  1
  N  N22  1  0.08644686  0.17976719  0.78619660  1
  H  H23  1  0.19857018  0.05493223  0.70986831  1
  C  C24  1  0.24929301  0.11867357  0.80645454  1
  Cu  Cu25  1  0.46951308  0.22025080  0.95095709  1
  H  H26  1  0.40519928  0.01538393  0.84133968  1
  O  O27  1  0.06350509  0.14109374  0.98480731  1
  O  O28  1  0.41758575  0.15599417  0.99886267  1
  Cu  Cu29  1  0.08500287  0.21270468  0.93787078  1
  C  C30  1  0.14355971  0.15252563  0.75688913  1
  C  C31  1  0.30555260  0.13337147  0.87374690  1
  C  C32  1  0.41721491  0.11013273  0.95209295  1
  C  C33  1  0.11872571  0.05447383  0.95475981  1
  C  C34  1  0.08243966  0.05042146  0.86019274  1
  C  C35  1  0.35975978  0.04433381  0.83702419  1
  N  N36  1  0.00650857  0.16732942  0.72002135  1
  H  H37  1  0.04663872  0.08283187  0.83752052  1
  O  O38  1  0.00966939  0.04101786  0.67470784  1
  C  C39  1  0.16512683  0.01389258  0.99346538  1
  N  N40  1  0.17274994  0.08935472  0.52008971  1
  C  C41  1  0.15590722  0.03574869  0.53948288  1
  H  H42  1  0.11964896  0.19556214  0.51693427  1
  C  C43  1  0.04764588  0.00348123  0.69741825  1
  C  C44  1  0.08991177  0.00339860  0.80241895  1
  N  N45  1  0.33951599  0.24504303  0.85276366  1
  C  C46  1  0.39512130  0.36159868  0.11205382  1
  C  C47  1  0.09408610  0.41975949  0.18684771  1
  O  O48  1  0.14251540  0.40332382  0.13709929  1
  O  O49  1  0.43234658  0.27209686  0.13088456  1
  H  H50  1  0.43181531  0.41872515  0.22943460  1
  C  C51  1  0.10292386  0.46840881  0.24827965  1
  C  C52  1  0.17075717  0.49427176  0.23170589  1
  C  C53  1  0.29846519  0.44061608  0.05142011  1
  O  O54  1  0.48024012  0.32949749  0.24039697  1
  N  N55  1  0.09509875  0.28503734  0.18069491  1
  C  C56  1  0.35040697  0.35022839  0.03132765  1
  H  H57  1  0.21026492  0.47840814  0.17555114  1
  C  C58  1  0.44176460  0.31677946  0.16225615  1
  O  O59  1  0.49073522  0.46897414  0.36537886  1
  O  O60  1  0.03388352  0.39077297  0.18917040  1
  C  C61  1  0.34800436  0.45409025  0.13145409  1
  O  O62  1  0.04238816  0.27679969  0.46884758  1
  C  C63  1  0.39631933  0.41042866  0.16213629  1
  N  N64  1  0.17682779  0.38386482  0.47311589  1
  N  N65  1  0.12747825  0.36363051  0.43142190  1
  N  N66  1  0.07593440  0.26338629  0.10248798  1
  C  C67  1  0.05268125  0.49364998  0.30765946  1
  H  H68  1  0.47705602  0.31514646  0.43539004  1
  O  O69  1  0.34580865  0.49962302  0.16608912  1
  H  H70  1  0.26310686  0.47125376  0.02320966  1
  Cu  Cu71  1  0.01171102  0.32403230  0.25183020  1
  O  O72  1  0.34973189  0.33029801  0.49834562  1
  Cu  Cu73  1  0.02787495  0.34923619  0.48881855  1
  H  H74  1  0.22214094  0.40377281  0.88882461  1
  H  H75  1  0.43375183  0.31389783  0.75958685  1
  C  C76  1  0.05382064  0.35933895  0.80711280  1
  Cu  Cu77  1  0.22845451  0.31589943  0.69494310  1
  O  O78  1  0.13305884  0.30045954  0.72800855  1
  O  O79  1  0.11067118  0.28554350  0.89199669  1
  C  C80  1  0.10234173  0.31186805  0.81183575  1
  H  H81  1  0.07116579  0.36186975  0.64620508  1
  N  N82  1  0.20784187  0.39829815  0.69320755  1
  C  C83  1  0.02238096  0.38141530  0.89182338  1
  N  N84  1  0.25417797  0.28268726  0.84336897  1
  N  N85  1  0.19432881  0.42011537  0.61359291  1
  C  C86  1  0.04062866  0.37882860  0.70708677  1
  C  C87  1  0.36950000  0.32448022  0.58359912  1
  O  O88  1  0.32423142  0.33237226  0.66122238  1
  C  C89  1  0.44865619  0.31318477  0.59888216  1
  N  N90  1  0.37285923  0.25321131  0.93023337  1
  C  C91  1  0.47177681  0.30734891  0.69819441  1
  O  O92  1  0.01397854  0.42352709  0.51516337  1
  C  C93  1  0.25602583  0.32648733  0.87495389  1
  N  N94  1  0.25990138  0.37629604  0.91055866  1
  H  H95  1  0.48873074  0.44952416  0.55161034  1
  H  H96  1  0.03773536  0.36603644  0.96493895  1
  H  H97  1  0.49213250  0.44817526  0.73781775  1
  O  O98  1  0.15590305  0.49131360  0.92231044  1
  C  C99  1  0.14501499  0.48993002  0.84226744  1
  C  C100  1  0.30141569  0.39008195  0.99807593  1
  C  C101  1  0.49521587  0.30707067  0.51416394  1
  H  H102  1  0.34486521  0.30707042  0.99645844  1
  N  N103  1  0.26741217  0.65716287  0.34020507  1
  H  H104  1  0.29405578  0.55257593  0.20414190  1
  C  C105  1  0.08380737  0.69437778  0.21449446  1
  C  C106  1  0.35513618  0.73843143  0.36825269  1
  H  H107  1  0.16075485  0.59519445  0.40571104  1
  C  C108  1  0.25888112  0.61630374  0.30155859  1
  C  C109  1  0.07330057  0.54006321  0.36412829  1
  O  O110  1  0.35070216  0.69526143  0.31923896  1
  C  C111  1  0.14056786  0.56174126  0.35725353  1
  O  O112  1  0.22018749  0.71713988  0.13664429  1
  C  C113  1  0.18902336  0.54114917  0.28180173  1
  H  H114  1  0.44795337  0.65050323  0.43121272  1
  H  H115  1  0.47406424  0.74950111  0.17588918  1
  N  N116  1  0.25277994  0.56820409  0.25409050  1
  C  C117  1  0.40346696  0.73042745  0.45687429  1
  H  H118  1  0.11247876  0.66104933  0.17717059  1
  C  C119  1  0.11415143  0.74583728  0.22579362  1
  N  N120  1  0.06129829  0.58588457  0.10802229  1
  C  C121  1  0.01248470  0.68496992  0.23930098  1
  C  C122  1  0.02254857  0.60553924  0.16800562  1
  C  C123  1  0.44557966  0.68575879  0.48136323  1
  H  H124  1  0.05089902  0.54411543  0.09310058  1
  C  C125  1  0.01580891  0.57046180  0.42400526  1
  O  O126  1  0.02968016  0.60365598  0.49105315  1
  C  C127  1  0.49431690  0.68940868  0.56150311  1
  C  C128  1  0.49768627  0.73434163  0.62786580  1
  N  N129  1  0.22788798  0.92104741  0.14502790  1
  O  O130  1  0.21766345  0.79709649  0.21141288  1
  C  C131  1  0.45116915  0.84130724  0.27495668  1
  C  C132  1  0.23415625  0.92513273  0.05813615  1
  N  N133  1  0.41442814  0.96291280  0.13199136  1
  H  H134  1  0.10414685  0.83072901  0.27900651  1
  N  N135  1  0.13260984  0.90999610  0.19246022  1
  O  O136  1  0.01060036  0.86817401  0.37622139  1
  Cu  Cu137  1  0.30886466  0.81370325  0.21563063  1
  N  N138  1  0.11532536  0.92867352  0.27479063  1
  O  O139  1  0.45960094  0.88481374  0.31923054  1
  O  O140  1  0.40208531  0.83440647  0.20688735  1
  O  O141  1  0.31824683  0.78027462  0.34897549  1
  C  C142  1  0.07903715  0.78819390  0.27206983  1
  C  C143  1  0.00858870  0.77847427  0.30150078  1
  N  N144  1  0.48966691  0.91559729  0.07659224  1
  Cu  Cu145  1  0.01151409  0.93546843  0.31422162  1
  C  C146  1  0.19072601  0.75024550  0.18865898  1
  H  H147  1  0.37794385  0.81407515  0.49369392  1
  N  N148  1  0.46033884  0.94211781  0.87408007  1
  O  O149  1  0.06780030  0.96808020  0.63265998  1
  O  O150  1  0.42032086  0.87087111  0.63952900  1
  O  O151  1  0.35737949  0.94981695  0.73143310  1
  C  C152  1  0.45753989  0.82902051  0.66249077  1
  Cu  Cu153  1  0.43771583  0.94698026  0.64965985  1
  C  C154  1  0.17483217  0.96974071  0.92653217  1
  H  H155  1  0.15096458  0.92833622  0.78064751  1
  C  C156  1  0.45700628  0.78026414  0.59878843  1
  O  O157  1  0.25217756  0.96321739  0.67667130  1
  C  C158  1  0.13700873  0.96359136  0.83232950  1
  H  H159  1  0.27762104  0.93027194  0.91882972  1
  C  C160  1  0.30020472  0.97944763  0.72803429  1
  N  N161  1  0.14276603  0.99108396  0.55295750  1
  N  N162  1  0.22830874  0.92804729  0.95424715  1
  N  N163  1  0.48592455  0.93236030  0.79277015  1
  C  C164  1  0.41148864  0.77858666  0.51376577  1
  O  O165  1  0.49531589  0.82746428  0.74189276  1
  C  C166  1  0.84331189  0.12543818  0.41960655  1
  H  H167  1  0.63154977  0.09709952  0.11880891  1
  H  H168  1  0.73223836  0.13271436  0.29765281  1
  Cu  Cu169  1  0.50702369  0.05122760  0.09202594  1
  C  C170  1  0.58171516  0.14934085  0.01912293  1
  O  O171  1  0.67298377  0.16283213  0.16742821  1
  C  C172  1  0.75642266  0.17429862  0.31708692  1
  C  C173  1  0.73392495  0.22263231  0.26919694  1
  O  O174  1  0.55474964  0.02553469  0.21312832  1
  C  C175  1  0.68262734  0.21011966  0.18270795  1
  C  C176  1  0.61899188  0.00432498  0.21542611  1
  C  C177  1  0.81179175  0.18027258  0.38473656  1
  O  O178  1  0.65721031  0.00567373  0.14432021  1
  O  O179  1  0.89110266  0.12687216  0.49390832  1
  O  O180  1  0.82401627  0.08213539  0.38534435  1
  C  C181  1  0.83445662  0.23156159  0.41819880  1
  O  O182  1  0.95816585  0.06264523  0.17914181  1
  N  N183  1  0.59642059  0.09670115  0.05609833  1
  H  H184  1  0.97210745  0.16788772  0.27811872  1
  O  O185  1  0.65602078  0.24590812  0.12047958  1
  H  H186  1  0.88109568  0.23434644  0.46948000  1
  N  N187  1  0.84720372  0.03465869  0.60639450  1
  C  C188  1  0.69485210  0.11114685  0.94353132  1
  N  N189  1  0.57241787  0.19158979  0.98612134  1
  N  N190  1  0.88765204  0.19823386  0.65705244  1
  N  N191  1  0.72637193  0.08786717  0.57221391  1
  H  H192  1  0.69190905  0.15187667  0.97396263  1
  Cu  Cu193  1  0.87179050  0.11520209  0.63312637  1
  H  H194  1  0.78160018  0.02345424  0.78504167  1
  C  C195  1  0.74452538  0.09047410  0.87195018  1
  N  N196  1  0.78726103  0.02276977  0.59149051  1
  O  O197  1  0.79703174  0.17449699  0.85180564  1
  O  O198  1  0.84962688  0.10342428  0.77483053  1
  C  C199  1  0.64387165  0.07312576  0.97319344  1
  C  C200  1  0.80078762  0.12779760  0.83311865  1
  C  C201  1  0.63427340  0.02107209  0.92962087  1
  C  C202  1  0.68794169  0.00183102  0.86634450  1
  C  C203  1  0.74277367  0.03528535  0.84068713  1
  N  N204  1  0.66852123  0.07925314  0.60899538  1
  N  N205  1  0.97925595  0.21079383  0.70657332  1
  C  C206  1  0.84714800  0.23293393  0.67445698  1
  N  N207  1  0.67640216  0.16787886  0.56224949  1
  N  N208  1  0.62160489  0.14818527  0.58550067  1
  O  O209  1  0.98957208  0.23206003  0.93656867  1
  H  H210  1  0.91290220  0.23700004  0.81039404  1
  H  H211  1  0.80524311  0.34894421  0.46328328  1
  H  H212  1  0.99975105  0.47824923  0.31255103  1
  N  N213  1  0.95271460  0.35611971  0.37126459  1
  N  N214  1  0.53937109  0.27499282  0.26993914  1
  H  H215  1  0.65019290  0.26011759  0.43358941  1
  H  H216  1  0.85690871  0.32900216  0.07684100  1
  N  N217  1  0.88703791  0.47679097  0.28891531  1
  C  C218  1  0.80659111  0.27779047  0.37207213  1
  C  C219  1  0.89473648  0.34701833  0.37915651  1
  C  C220  1  0.55308497  0.46693513  0.36548210  1
  N  N221  1  0.82397635  0.33731121  0.39200778  1
  H  H222  1  0.73794380  0.31157303  0.25026279  1
  O  O223  1  0.75489177  0.38857922  0.09029926  1
  N  N224  1  0.60225929  0.28022245  0.43393707  1
  H  H225  1  0.69205081  0.45272799  0.39130754  1
  C  C226  1  0.56679537  0.27946241  0.34848698  1
  C  C227  1  0.75711475  0.27564916  0.29246315  1
  O  O228  1  0.59383032  0.47860543  0.28639229  1
  O  O229  1  0.98265284  0.27666585  0.08405126  1
  H  H230  1  0.95472258  0.44491425  0.04550989  1
  C  C231  1  0.66242482  0.44557212  0.46141829  1
  O  O232  1  0.99256949  0.25913198  0.31988391  1
  C  C233  1  0.58844297  0.45031348  0.46357931  1
  Cu  Cu234  1  0.88246778  0.49755254  0.44829157  1
  O  O235  1  0.81106393  0.44789283  0.47939503  1
  C  C236  1  0.56183205  0.28579460  0.52852846  1
  C  C237  1  0.78661296  0.33863845  0.83990043  1
  H  H238  1  0.64468980  0.27248690  0.63878437  1
  O  O239  1  0.51645076  0.27802378  0.89025790  1
  H  H240  1  0.74476993  0.36171076  0.80024521  1
  C  C241  1  0.95402433  0.44247312  0.77609227  1
  C  C242  1  0.58814188  0.46913944  0.80866412  1
  C  C243  1  0.89401895  0.28611660  0.94678868  1
  O  O244  1  0.93377583  0.47900760  0.57159686  1
  N  N245  1  0.54739603  0.43956962  0.73677886  1
  C  C246  1  0.97686835  0.44047746  0.58835330  1
  C  C247  1  0.82551453  0.29517924  0.78776854  1
  C  C248  1  0.65852037  0.42161915  0.64274582  1
  N  N249  1  0.94357263  0.44840711  0.96572556  1
  O  O250  1  0.70260838  0.41995131  0.95343332  1
  N  N251  1  0.80552651  0.27180848  0.69927258  1
  N  N252  1  0.62668625  0.49124577  0.85711496  1
  C  C253  1  0.96021878  0.26709557  0.99637397  1
  H  H254  1  0.68828318  0.41103562  0.71287367  1
  N  N255  1  0.82633578  0.49186458  0.97058968  1
  C  C256  1  0.79588594  0.34838155  0.94261967  1
  C  C257  1  0.77550218  0.42979980  0.55934142  1
  C  C258  1  0.58440253  0.42971203  0.64086174  1
  O  O259  1  0.79985453  0.42164416  0.64119657  1
  C  C260  1  0.87971941  0.27042744  0.84590232  1
  C  C261  1  0.97198802  0.42340222  0.87660166  1
  C  C262  1  0.56195196  0.27460046  0.81792840  1
  C  C263  1  0.87693037  0.46993836  0.95485113  1
  Cu  Cu264  1  0.72998669  0.48971511  0.89673989  1
  C  C265  1  0.69569113  0.43202068  0.55113699  1
  H  H266  1  0.91388456  0.47251490  0.75692541  1
  C  C267  1  0.58987770  0.28414002  0.63046424  1
  C  C268  1  0.54746971  0.44243096  0.55136404  1
  C  C269  1  0.54196572  0.29088263  0.71358098  1
  Cu  Cu270  1  0.64204093  0.25405512  0.98202857  1
  O  O271  1  0.62224784  0.25729462  0.84093553  1
  C  C272  1  0.99178374  0.42083527  0.69411412  1
  C  C273  1  0.74711134  0.38879307  0.99969033  1
  C  C274  1  0.84780917  0.32027799  0.99825907  1
  C  C275  1  0.97480517  0.72884550  0.28578520  1
  H  H276  1  0.65290066  0.68842575  0.35632184  1
  C  C277  1  0.77884183  0.67043228  0.05509911  1
  O  O278  1  0.81614412  0.69543245  0.22007521  1
  O  O279  1  0.84926628  0.61419790  0.16660707  1
  C  C280  1  0.56790659  0.66187520  0.20006830  1
  N  N281  1  0.73655968  0.57070596  0.33711439  1
  Cu  Cu282  1  0.89385211  0.58924699  0.28813867  1
  O  O283  1  0.52707690  0.66138543  0.12940211  1
  O  O284  1  0.61833336  0.62490670  0.21281042  1
  C  C285  1  0.81675220  0.65974985  0.15878629  1
  N  N286  1  0.98573866  0.63192680  0.23595275  1
  O  O287  1  0.94883562  0.55770403  0.40386893  1
  Cu  Cu288  1  0.61069627  0.55347560  0.24570723  1
  C  C289  1  0.56331722  0.71358433  0.26300198  1
  N  N290  1  0.88863226  0.51234295  0.23004520  1
  C  C291  1  0.60880748  0.71857693  0.34327559  1
  C  C292  1  0.74848382  0.72103211  0.04536368  1
  N  N293  1  0.60855661  0.57334812  0.39575294  1
  H  H294  1  0.91856697  0.72024251  0.30506175  1
  N  N295  1  0.66422366  0.57699378  0.43921442  1
  N  N296  1  0.79373175  0.57914244  0.37361970  1
  H  H297  1  0.75564123  0.68440699  0.46304242  1
  C  C298  1  0.69797683  0.74390350  0.49314918  1
  N  N299  1  0.74839523  0.71818089  0.51074254  1
  N  N300  1  0.54640935  0.64482544  0.57035289  1
  O  O301  1  0.75811289  0.55474894  0.83226633  1
  H  H302  1  0.53273586  0.73196584  0.69820903  1
  C  C303  1  0.72716067  0.59711180  0.80959464  1
  H  H304  1  0.81273851  0.59712787  0.64586850  1
  O  O305  1  0.69222487  0.59935476  0.72734060  1
  C  C306  1  0.70556103  0.69230082  0.86823801  1
  H  H307  1  0.66754813  0.69946093  0.80317357  1
  N  N308  1  0.61945542  0.64586292  0.72337748  1
  C  C309  1  0.59176958  0.63828609  0.64488186  1
  C  C310  1  0.73536034  0.64248779  0.88687378  1
  N  N311  1  0.82548687  0.59306335  0.56800263  1
  N  N312  1  0.77351041  0.58253278  0.51074363  1
  C  C313  1  0.71788998  0.73329363  0.94760316  1
  H  H314  1  0.56103754  0.62319704  0.50430707  1
  C  C315  1  0.77529411  0.63180053  0.97826952  1
  H  H316  1  0.80275340  0.59113231  0.99511683  1
  C  C317  1  0.73570580  0.93188008  0.40039133  1
  C  C318  1  0.69064886  0.91521726  0.48147333  1
  N  N319  1  0.64459674  0.77574305  0.48448235  1
  H  H320  1  0.54244780  0.84265096  0.43585057  1
  C  C321  1  0.71086289  0.96075733  0.31142693  1
  C  C322  1  0.85247476  0.93929460  0.36332160  1
  C  C323  1  0.60374414  0.76792794  0.40035811  1
  C  C324  1  0.54909307  0.80564574  0.38334814  1
  C  C325  1  0.59767762  0.96892462  0.39940780  1
  C  C326  1  0.97249280  0.82514894  0.35527530  1
  O  O327  1  0.91386802  0.82158301  0.39124015  1
  C  C328  1  0.50611698  0.79929880  0.29664644  1
  N  N329  1  0.90361948  0.95789752  0.32159506  1
  N  N330  1  0.80478335  0.91440572  0.41372051  1
  C  C331  1  0.62302455  0.93542702  0.47796996  1
  H  H332  1  0.74322264  0.96747219  0.24145431  1
  H  H333  1  0.54531770  0.98512793  0.40235038  1
  C  C334  1  0.64330918  0.97977424  0.31549538  1
  C  C335  1  0.51049119  0.75209314  0.23881190  1
  H  H336  1  0.89265932  0.99296949  0.27754668  1
  H  H337  1  0.74775991  0.75034031  0.10665592  1
  C  C338  1  0.68478012  0.94190359  0.82819983  1
  O  O339  1  0.73174108  0.92300334  0.78136246  1
  N  N340  1  0.63009810  0.80304226  0.76904552  1
  Cu  Cu341  1  0.56494610  0.87375988  0.77791829  1
  O  O342  1  0.59841675  0.89791856  0.64067921  1
  O  O343  1  0.62462447  0.91827797  0.84579200  1
  N  N344  1  0.50905505  0.90735213  0.99021347  1
  C  C345  1  0.66054171  0.79193443  0.84600242  1
  H  H346  1  0.58448893  0.99614414  0.93838072  1
  C  C347  1  0.57658412  0.92648801  0.56912023  1
  H  H348  1  0.70780109  0.89370310  0.55140148  1
  H  H349  1  0.64655810  0.77660394  0.70949828  1
  N  N350  1  0.68978053  0.78419087  0.93533820  1
  O  O351  1  0.51491620  0.94603625  0.56512399  1
