# generated using pymatgen
data_Zn3H5C15O11
_symmetry_space_group_name_H-M   'P 1'
_cell_length_a   15.57604908
_cell_length_b   13.45308182
_cell_length_c   20.22416618
_cell_angle_alpha   90.00000000
_cell_angle_beta   90.00000000
_cell_angle_gamma   90.00000000
_symmetry_Int_Tables_number   1
_chemical_formula_structural   Zn3H5C15O11
_chemical_formula_sum   'Zn18 H30 C90 O66'
_cell_volume   4237.89034932
_cell_formula_units_Z   6
loop_
 _symmetry_equiv_pos_site_id
 _symmetry_equiv_pos_as_xyz
  1  'x, y, z'
loop_
 _atom_site_type_symbol
 _atom_site_label
 _atom_site_symmetry_multiplicity
 _atom_site_fract_x
 _atom_site_fract_y
 _atom_site_fract_z
 _atom_site_occupancy
  C  C0  1  0.04506748  0.12508358  0.40870861  1
  C  C1  1  0.11039285  0.11484163  0.35694512  1
  H  H2  1  0.21869375  0.37123742  0.44536692  1
  O  O3  1  0.16166672  0.18152279  0.33933791  1
  Zn  Zn4  1  0.19242411  0.23532481  0.07560658  1
  O  O5  1  0.07382778  0.41281076  0.36911988  1
  O  O6  1  0.04579441  0.09580322  0.01298959  1
  H  H7  1  0.03460908  0.28525171  0.40009471  1
  O  O8  1  0.00764515  0.44849259  0.34553113  1
  C  C9  1  0.01191949  0.22052945  0.42630665  1
  O  O10  1  0.23730349  0.01233144  0.18559721  1
  C  C11  1  0.01648920  0.34669051  0.15289802  1
  O  O12  1  0.12307494  0.02928458  0.33662484  1
  C  C13  1  0.02525390  0.02973603  0.44602842  1
  C  C14  1  0.07522205  0.26282972  0.72789365  1
  C  C15  1  0.03869656  0.14388316  0.90022279  1
  O  O16  1  0.22333366  0.04268734  0.65510062  1
  C  C17  1  0.07046129  0.15518587  0.97006908  1
  O  O18  1  0.12248211  0.22395244  0.98335136  1
  H  H19  1  0.11370317  0.26975774  0.85844003  1
  O  O20  1  0.13278584  0.32792663  0.73895021  1
  C  C21  1  0.06879870  0.20720020  0.84958330  1
  O  O22  1  0.05350762  0.24872589  0.67144916  1
  C  C23  1  0.23110404  0.01949182  0.83276268  1
  C  C24  1  0.04413576  0.19305980  0.78356133  1
  O  O25  1  0.24870905  0.47857810  0.86875676  1
  C  C26  1  0.24388592  0.06447669  0.71444664  1
  H  H27  1  0.21228049  0.88137820  0.47649052  1
  C  C28  1  0.18903518  0.69507056  0.44647491  1
  O  O29  1  0.17311871  0.81798800  0.28507306  1
  C  C30  1  0.15843286  0.73994173  0.25339132  1
  O  O31  1  0.18192704  0.60591342  0.43336474  1
  O  O32  1  0.11159164  0.67204316  0.27548438  1
  Zn  Zn33  1  0.06693531  0.94249251  0.02617522  1
  C  C34  1  0.15241320  0.66610162  0.14089601  1
  O  O35  1  0.06285714  0.92508405  0.13140327  1
  Zn  Zn36  1  0.13681732  0.95605058  0.24707743  1
  O  O37  1  0.21451256  0.93439268  0.00931799  1
  H  H38  1  0.09366640  0.62592351  0.15870319  1
  C  C39  1  0.17387588  0.66888460  0.07313831  1
  C  C40  1  0.19278504  0.73100458  0.18460680  1
  Zn  Zn41  1  0.14457518  0.54385951  0.33063534  1
  H  H42  1  0.06661510  0.95895762  0.44534333  1
  O  O43  1  0.06223112  0.55432971  0.03198008  1
  C  C44  1  0.12073486  0.60875824  0.02612173  1
  O  O45  1  0.13572185  0.74871445  0.47794178  1
  O  O46  1  0.00378487  0.99447685  0.21424488  1
  C  C47  1  0.14315123  0.92898367  0.75906003  1
  O  O48  1  0.02086697  0.89441389  0.55098378  1
  O  O49  1  0.07554742  0.86508544  0.92489422  1
  Zn  Zn50  1  0.17301267  0.64807173  0.93569874  1
  C  C51  1  0.03330317  0.80721285  0.78438388  1
  C  C52  1  0.10090749  0.87692158  0.80961338  1
  C  C53  1  0.11952580  0.90019006  0.87764743  1
  Zn  Zn54  1  0.02307538  0.72274607  0.53308704  1
  H  H55  1  0.12574941  0.90930307  0.70582449  1
  C  C56  1  0.19549712  0.96266346  0.88581129  1
  O  O57  1  0.02246499  0.79303911  0.72334013  1
  C  C58  1  0.20749694  0.99890784  0.76764788  1
  C  C59  1  0.23854721  0.98820853  0.94510783  1
  C  C60  1  0.28939143  0.39209675  0.45050768  1
  Zn  Zn61  1  0.29578149  0.17848316  0.32724486  1
  C  C62  1  0.33970195  0.42463616  0.39030365  1
  O  O63  1  0.32744059  0.09413287  0.24338287  1
  Zn  Zn64  1  0.42561996  0.34088794  0.44387277  1
  O  O65  1  0.35739510  0.08533698  0.39952698  1
  O  O66  1  0.31257843  0.32786997  0.29828210  1
  C  C67  1  0.31892328  0.02407617  0.43437072  1
  C  C68  1  0.30965822  0.41111041  0.32271979  1
  H  H69  1  0.31217559  0.32605425  0.18720409  1
  O  O70  1  0.26943723  0.04356028  0.48173524  1
  O  O71  1  0.26128349  0.47533894  0.29499216  1
  C  C72  1  0.27653762  0.27432636  0.15307918  1
  C  C73  1  0.28063636  0.08864185  0.19532311  1
  C  C74  1  0.26375533  0.18583338  0.15351525  1
  C  C75  1  0.41733068  0.48705158  0.40114961  1
  C  C76  1  0.45816632  0.48514771  0.47019558  1
  O  O77  1  0.25567053  0.24791504  0.55755535  1
  H  H78  1  0.43792038  0.47485817  0.57551852  1
  C  C79  1  0.28846369  0.32987553  0.56911465  1
  C  C80  1  0.43143493  0.44870850  0.75403831  1
  C  C81  1  0.33133817  0.38547363  0.51584727  1
  C  C82  1  0.30169165  0.42295924  0.83183218  1
  O  O83  1  0.28979119  0.33287922  0.82380548  1
  Zn  Zn84  1  0.30218142  0.09009170  0.58197973  1
  O  O85  1  0.29720930  0.13351617  0.72588429  1
  O  O86  1  0.42882497  0.06213426  0.56382237  1
  O  O87  1  0.29593706  0.35780234  0.62786947  1
  H  H88  1  0.28344837  0.06931376  0.84838344  1
  C  C89  1  0.40836177  0.45249795  0.52771387  1
  O  O90  1  0.29069676  0.05106695  0.95165431  1
  C  C91  1  0.49158411  0.11255922  0.58750226  1
  Zn  Zn92  1  0.26057204  0.28799334  0.72091538  1
  O  O93  1  0.48723747  0.42712880  0.71761602  1
  C  C94  1  0.36817868  0.48238372  0.79909156  1
  C  C95  1  0.26613103  0.85217599  0.44767839  1
  C  C96  1  0.39079386  0.77487929  0.36580722  1
  C  C97  1  0.33078012  0.70968633  0.39038443  1
  C  C98  1  0.46323016  0.74504530  0.31988338  1
  H  H99  1  0.27413480  0.72543169  0.00324749  1
  C  C100  1  0.30231746  0.76006182  0.10767040  1
  O  O101  1  0.47845285  0.65755442  0.30915942  1
  H  H102  1  0.44824158  0.53124058  0.35954786  1
  C  C103  1  0.27010422  0.77986740  0.17107605  1
  C  C104  1  0.38656011  0.80721581  0.09132077  1
  O  O105  1  0.42254053  0.85790457  0.13511360  1
  H  H106  1  0.30256005  0.83163723  0.20351401  1
  H  H107  1  0.32498019  0.63059982  0.37975771  1
  H  H108  1  0.43340224  0.92539969  0.35259200  1
  C  C109  1  0.32550398  0.91928479  0.42027705  1
  C  C110  1  0.38595996  0.87668838  0.37767345  1
  O  O111  1  0.42132066  0.78958083  0.03933999  1
  C  C112  1  0.25286174  0.71697764  0.05740360  1
  C  C113  1  0.26395317  0.75141922  0.42757978  1
  H  H114  1  0.25753001  0.96465950  0.03661484  1
  C  C115  1  0.36356594  0.58333549  0.82324925  1
  H  H116  1  0.40640249  0.64888681  0.80974622  1
  C  C117  1  0.28282458  0.69602069  0.88345631  1
  O  O118  1  0.31044462  0.77744095  0.88613459  1
  C  C119  1  0.29287115  0.59229947  0.86324813  1
  H  H120  1  0.38217442  0.89713071  0.83673979  1
  H  H121  1  0.36861672  0.92816693  0.76646711  1
  O  O122  1  0.41495872  0.90834348  0.79622308  1
  C  C123  1  0.58175840  0.24539827  0.36491825  1
  O  O124  1  0.62598308  0.33472867  0.33099708  1
  O  O125  1  0.54626397  0.41712433  0.14353994  1
  C  C126  1  0.60599658  0.35512330  0.26825537  1
  C  C127  1  0.57682122  0.48194347  0.17337542  1
  Zn  Zn128  1  0.73434895  0.35086681  0.21283228  1
  H  H129  1  0.56511111  0.29751164  0.24254989  1
  C  C130  1  0.59117364  0.24480044  0.43636806  1
  C  C131  1  0.63152190  0.44517244  0.23139628  1
  H  H132  1  0.69121104  0.36366555  0.43568162  1
  O  O133  1  0.54846415  0.18186979  0.33317127  1
  C  C134  1  0.64713218  0.31675523  0.46696291  1
  O  O135  1  0.70004130  0.04355564  0.23976506  1
  C  C136  1  0.54943241  0.17381533  0.47797765  1
  H  H137  1  0.50780825  0.11470734  0.45703908  1
  C  C138  1  0.60619794  0.24937950  0.57565531  1
  H  H139  1  0.61129571  0.24857739  0.62998893  1
  C  C140  1  0.55012433  0.18175828  0.54510811  1
  C  C141  1  0.65322044  0.31056611  0.53427374  1
  O  O142  1  0.70509872  0.39636388  0.63290246  1
  C  C143  1  0.70638075  0.38876727  0.57215504  1
  O  O144  1  0.50928989  0.11315515  0.64452468  1
  O  O145  1  0.60383535  0.97457467  0.17679690  1
  O  O146  1  0.64285204  0.73254400  0.16019524  1
  O  O147  1  0.58418021  0.57373012  0.15278696  1
  Zn  Zn148  1  0.54123480  0.84202656  0.18940031  1
  C  C149  1  0.70634747  0.61943593  0.24696552  1
  O  O150  1  0.56136055  0.59260920  0.43100259  1
  H  H151  1  0.66531041  0.87194975  0.08662287  1
  C  C152  1  0.65418102  0.65085241  0.18719625  1
  Zn  Zn153  1  0.62232442  0.56656838  0.32425646  1
  C  C154  1  0.73279702  0.89219570  0.09859514  1
  C  C155  1  0.52861201  0.55468599  0.47841987  1
  C  C156  1  0.68027668  0.99430565  0.19174422  1
  H  H157  1  0.73308518  0.74862852  0.26670992  1
  C  C158  1  0.71151376  0.50153272  0.25386777  1
  O  O159  1  0.50429433  0.81510775  0.29141657  1
  H  H160  1  0.59526766  0.63214723  0.53789176  1
  O  O161  1  0.55129288  0.58386598  0.54157751  1
  O  O162  1  0.69985405  0.78933035  0.99207112  1
  O  O163  1  0.82763059  0.29975200  0.39000719  1
  C  C164  1  0.84803999  0.25805020  0.43768073  1
  C  C165  1  0.93266793  0.22662162  0.47454308  1
  Zn  Zn166  1  0.91022985  0.10243625  0.41900691  1
  O  O167  1  0.96123476  0.39118728  0.14356767  1
  C  C168  1  0.95358936  0.05447905  0.82068585  1
  C  C169  1  0.96412948  0.03531471  0.50422057  1
  H  H170  1  0.96363640  0.10612031  0.71899455  1
  H  H171  1  0.89316968  0.13619390  0.57155005  1
  Zn  Zn172  1  0.88147773  0.36992665  0.50908556  1
  C  C173  1  0.98658752  0.11637280  0.77089141  1
  C  C174  1  0.98219895  0.06722617  0.88601096  1
  O  O175  1  0.75354717  0.43587160  0.53427471  1
  H  H176  1  0.96091422  0.01794300  0.92642545  1
  C  C177  1  0.92509614  0.13082198  0.52011822  1
  O  O178  1  0.98488637  0.48319671  0.56883342  1
  C  C179  1  0.90458905  0.92588415  0.13623638  1
  C  C180  1  0.75525269  0.94389020  0.15371453  1
  C  C181  1  0.89103119  0.87665163  0.07330615  1
  O  O182  1  0.87634683  0.57542792  0.42316291  1
  O  O183  1  0.94792744  0.85338772  0.03174841  1
  O  O184  1  0.84445475  0.65202170  0.44627320  1
  C  C185  1  0.80050758  0.85380889  0.06155998  1
  C  C186  1  0.83986765  0.95851205  0.17639166  1
  H  H187  1  0.84929622  0.99757299  0.22360189  1
  Zn  Zn188  1  0.77897136  0.59180878  0.16372729  1
  C  C189  1  0.99409509  0.94996240  0.16219417  1
  O  O190  1  0.75588380  0.69124504  0.28563185  1
  C  C191  1  0.77694734  0.79161046  0.00200460  1
  O  O192  1  0.89476785  0.93514689  0.58514944  1
  Zn  Zn193  1  0.91003076  0.86049319  0.67402482  1
  O  O194  1  0.87174338  0.97055925  0.74296609  1
  O  O195  1  0.82404046  0.74091274  0.96084359  1
  C  C196  1  0.93240549  0.65977280  0.60532812  1
  Zn  Zn197  1  0.92564453  0.82199197  0.91236983  1
  O  O198  1  0.85821183  0.92772856  0.84644580  1
  O  O199  1  0.88192134  0.70671750  0.63944579  1
  C  C200  1  0.95844689  0.94780415  0.54850453  1
  C  C201  1  0.97031649  0.57170975  0.57853384  1
  C  C202  1  0.89133000  0.97853539  0.80145206  1
  O  O203  1  0.98552115  0.75861557  0.82580258  1
