# generated using pymatgen
data_Zn2H4C9O7
_symmetry_space_group_name_H-M   'P 1'
_cell_length_a   23.49654192
_cell_length_b   14.07479764
_cell_length_c   16.11430785
_cell_angle_alpha   90.00000000
_cell_angle_beta   90.00000000
_cell_angle_gamma   90.00000000
_symmetry_Int_Tables_number   1
_chemical_formula_structural   Zn2H4C9O7
_chemical_formula_sum   'Zn32 H64 C144 O112'
_cell_volume   5329.14780641
_cell_formula_units_Z   16
loop_
 _symmetry_equiv_pos_site_id
 _symmetry_equiv_pos_as_xyz
  1  'x, y, z'
loop_
 _atom_site_type_symbol
 _atom_site_label
 _atom_site_symmetry_multiplicity
 _atom_site_fract_x
 _atom_site_fract_y
 _atom_site_fract_z
 _atom_site_occupancy
  O  O0  1  0.13876419  0.18323601  0.34889021  1
  Zn  Zn1  1  0.22723762  0.26480342  0.36115829  1
  C  C2  1  0.02203419  0.38808928  0.14687103  1
  C  C3  1  0.07280681  0.27895406  0.26695924  1
  C  C4  1  0.09135847  0.37114562  0.25443948  1
  C  C5  1  0.02100470  0.03574733  0.05152643  1
  O  O6  1  0.09506690  0.14349742  0.09825507  1
  O  O7  1  0.04897562  0.16150874  0.37036621  1
  C  C8  1  0.24071467  0.41345588  0.07577294  1
  C  C9  1  0.06229079  0.42905831  0.19914430  1
  C  C10  1  0.07235794  0.06108004  0.10133390  1
  O  O11  1  0.16067430  0.37720342  0.36475828  1
  Zn  Zn12  1  0.17129027  0.18595119  0.03351034  1
  C  C13  1  0.02926218  0.24021547  0.21558686  1
  C  C14  1  0.08837870  0.20598287  0.33448015  1
  O  O15  1  0.24292641  0.19664561  0.12941551  1
  C  C16  1  0.13441752  0.42217840  0.31124484  1
  Zn  Zn17  1  0.09699474  0.05572842  0.44645910  1
  C  C18  1  0.00628504  0.29166288  0.14926509  1
  O  O19  1  0.08939741  0.00076906  0.15352205  1
  O  O20  1  0.03058632  0.48745471  0.40983794  1
  H  H21  1  0.05700000  0.44061374  0.39017310  1
  H  H22  1  0.01570897  0.16548955  0.22853998  1
  O  O23  1  0.23450668  0.31690221  0.49397971  1
  H  H24  1  0.01442726  0.18559471  0.01439646  1
  C  C25  1  0.11961038  0.20555092  0.59289229  1
  C  C26  1  0.18628297  0.31690537  0.74501015  1
  O  O27  1  0.23309248  0.27541380  0.97956819  1
  O  O28  1  0.03703440  0.22023676  0.74330782  1
  C  C29  1  0.19679440  0.21741984  0.70995423  1
  O  O30  1  0.09461319  0.14406532  0.55188283  1
  H  H31  1  0.07320063  0.24523924  0.73259148  1
  O  O32  1  0.10949461  0.08884462  0.85573045  1
  Zn  Zn33  1  0.05107680  0.08461842  0.75686300  1
  Zn  Zn34  1  0.16567484  0.40699084  0.58762284  1
  C  C35  1  0.16802378  0.17015059  0.64466857  1
  O  O36  1  0.18613289  0.39994377  0.95277253  1
  O  O37  1  0.10632569  0.29198931  0.58653512  1
  O  O38  1  0.14546400  0.36936776  0.71890088  1
  H  H39  1  0.16211193  0.02778332  0.58637474  1
  C  C40  1  0.18543614  0.07671911  0.63004273  1
  C  C41  1  0.13788640  0.03257729  0.90052742  1
  C  C42  1  0.22975928  0.03241739  0.67230828  1
  O  O43  1  0.17380810  0.06137288  0.95284016  1
  C  C44  1  0.23947694  0.17100665  0.75560085  1
  O  O45  1  0.22624117  0.36071163  0.78667473  1
  C  C46  1  0.21985184  0.35932329  0.99819212  1
  Zn  Zn47  1  0.18776465  0.49181809  0.83463603  1
  H  H48  1  0.01515798  0.28771312  0.55409329  1
  O  O49  1  0.08027584  0.96159129  0.34248966  1
  Zn  Zn50  1  0.06457498  0.60425333  0.34224449  1
  O  O51  1  0.05735202  0.84148194  0.12413573  1
  O  O52  1  0.11147565  0.59508190  0.01603054  1
  H  H53  1  0.13104654  0.76407282  0.05685908  1
  Zn  Zn54  1  0.04105472  0.64892094  0.09448027  1
  H  H55  1  0.08175085  0.90425672  0.37247437  1
  O  O56  1  0.23704932  0.71726614  0.04767514  1
  Zn  Zn57  1  0.03813090  0.92690757  0.24009661  1
  O  O58  1  0.03578405  0.72860813  0.40674149  1
  O  O59  1  0.13759362  0.50916710  0.30804761  1
  C  C60  1  0.00807873  0.80010064  0.38059623  1
  C  C61  1  0.01955700  0.84657002  0.06818245  1
  C  C62  1  0.22978164  0.96950958  0.23244998  1
  H  H63  1  0.05550660  0.72110296  0.21054689  1
  O  O64  1  0.14666259  0.94069180  0.47229581  1
  C  C65  1  0.22632626  0.92945166  0.37069945  1
  O  O66  1  0.06054872  0.65265350  0.21538010  1
  C  C67  1  0.19936380  0.92918042  0.45817100  1
  H  H68  1  0.14729350  0.92883501  0.03025072  1
  H  H69  1  0.21927537  0.54382819  0.00577299  1
  H  H70  1  0.21527313  0.98387511  0.16864129  1
  C  C71  1  0.19632507  0.96435540  0.30272796  1
  H  H72  1  0.15087545  0.98667993  0.30202435  1
  H  H73  1  0.07357718  0.50497354  0.19425583  1
  C  C74  1  0.23928006  0.51168200  0.06268997  1
  C  C75  1  0.13320042  0.88463323  0.97709074  1
  C  C76  1  0.12892989  0.92325069  0.89658552  1
  C  C77  1  0.11714555  0.72793663  0.92440889  1
  C  C78  1  0.11430880  0.86279179  0.83109993  1
  H  H79  1  0.10727859  0.71701102  0.79417977  1
  C  C80  1  0.14011982  0.59058823  0.67543797  1
  C  C81  1  0.09957198  0.88500230  0.74091660  1
  O  O82  1  0.16809628  0.60297164  0.74181470  1
  H  H83  1  0.01808573  0.78240821  0.52735223  1
  H  H84  1  0.09173172  0.63819723  0.52814355  1
  O  O85  1  0.16077523  0.55180549  0.61271408  1
  C  C86  1  0.11314992  0.76497027  0.84408677  1
  C  C87  1  0.05992014  0.63131299  0.57825176  1
  O  O88  1  0.08671890  0.82315474  0.69423232  1
  C  C89  1  0.03849848  0.56256560  0.72168987  1
  C  C90  1  0.12596289  0.78927177  0.99130239  1
  O  O91  1  0.10957668  0.56567230  0.88185895  1
  C  C92  1  0.07828988  0.60710233  0.66357155  1
  C  C93  1  0.11387489  0.62391875  0.94151780  1
  O  O94  1  0.10108315  0.97229464  0.71640253  1
  H  H95  1  0.05639986  0.52043707  0.76980000  1
  H  H96  1  0.24595981  0.96125165  0.65066464  1
  Zn  Zn97  1  0.00040080  0.68103036  0.66247313  1
  O  O98  1  0.23262237  0.90063726  0.51067304  1
  O  O99  1  0.28618363  0.17497656  0.42727101  1
  O  O100  1  0.36861189  0.12096970  0.40227218  1
  C  C101  1  0.42330166  0.28195171  0.45090470  1
  C  C102  1  0.36377728  0.27575982  0.46248821  1
  H  H103  1  0.29903735  0.40321426  0.26891255  1
  C  C104  1  0.33850932  0.18580007  0.43014942  1
  H  H105  1  0.44793727  0.23237494  0.41054931  1
  C  C106  1  0.28007648  0.43043912  0.21047627  1
  H  H107  1  0.44499486  0.33278928  0.05582672  1
  C  C108  1  0.40470072  0.47327977  0.03005730  1
  C  C109  1  0.41570400  0.37773978  0.01626714  1
  O  O110  1  0.27144866  0.24591347  0.24863656  1
  C  C111  1  0.44879218  0.36496481  0.48551733  1
  C  C112  1  0.25768160  0.26383459  0.17479181  1
  C  C113  1  0.25740920  0.36757333  0.15102958  1
  Zn  Zn114  1  0.48512032  0.06745187  0.96318181  1
  O  O115  1  0.36830162  0.32325560  0.69067355  1
  H  H116  1  0.35836258  0.36903164  0.81815118  1
  C  C117  1  0.39764660  0.34348763  0.93618429  1
  Zn  Zn118  1  0.44514231  0.24948204  0.71800485  1
  C  C119  1  0.35244564  0.49455567  0.90094253  1
  O  O120  1  0.25822089  0.41457102  0.58906386  1
  O  O121  1  0.47363908  0.08281497  0.67521544  1
  O  O122  1  0.41394910  0.21861862  0.83996562  1
  C  C123  1  0.31085598  0.03727781  0.77756231  1
  C  C124  1  0.36881204  0.40203120  0.87957639  1
  C  C125  1  0.27385563  0.36287650  0.52410425  1
  Zn  Zn126  1  0.29876879  0.40334683  0.70555472  1
  O  O127  1  0.32192553  0.06157494  0.84944409  1
  H  H128  1  0.35879366  0.30287086  0.63343907  1
  C  C129  1  0.42096768  0.24832518  0.91298474  1
  C  C130  1  0.42156996  0.44173445  0.52256916  1
  O  O131  1  0.44685319  0.19800875  0.96578957  1
  C  C132  1  0.25976764  0.08125507  0.73190092  1
  C  C133  1  0.36309029  0.43993334  0.53083565  1
  H  H134  1  0.25868608  0.20014309  0.81159086  1
  C  C135  1  0.33615122  0.35503694  0.50231450  1
  H  H136  1  0.33640834  0.49941022  0.55107612  1
  O  O137  1  0.47789707  0.96652881  0.07082575  1
  O  O138  1  0.40808823  0.84773553  0.25078664  1
  O  O139  1  0.35397729  0.90110280  0.10975439  1
  Zn  Zn140  1  0.37774589  0.76392466  0.15114610  1
  H  H141  1  0.30734219  0.88290454  0.42401253  1
  C  C142  1  0.37763694  0.87684116  0.30925768  1
  O  O143  1  0.40286812  0.65586256  0.07300664  1
  C  C144  1  0.31489138  0.90089905  0.29460899  1
  C  C145  1  0.28408114  0.90741318  0.36932760  1
  O  O146  1  0.28223633  0.98872370  0.08027874  1
  C  C147  1  0.28284547  0.52802180  0.19604240  1
  O  O148  1  0.40145406  0.88162271  0.38001129  1
  O  O149  1  0.28523051  0.72605064  0.16270479  1
  C  C150  1  0.30705914  0.94045135  0.13440777  1
  C  C151  1  0.28531764  0.93480763  0.22252708  1
  H  H152  1  0.29579370  0.58240196  0.23948301  1
  C  C153  1  0.26026393  0.67786875  0.10917395  1
  C  C154  1  0.37874117  0.63480173  0.00517716  1
  O  O155  1  0.33228775  0.60976985  0.41032280  1
  Zn  Zn156  1  0.38689983  0.99276937  0.45123673  1
  C  C157  1  0.34220636  0.63564344  0.47766037  1
  C  C158  1  0.26372244  0.57160489  0.12191172  1
  H  H159  1  0.42421400  0.51182805  0.08344314  1
  Zn  Zn160  1  0.27564212  0.73099821  0.92157348  1
  O  O161  1  0.38459256  0.96184433  0.56957756  1
  H  H162  1  0.34504225  0.94063904  0.56647372  1
  O  O163  1  0.28463119  0.86270275  0.90846238  1
  O  O164  1  0.33408334  0.96973560  0.74238845  1
  O  O165  1  0.26430915  0.59062666  0.87584136  1
  C  C166  1  0.44348580  0.88739803  0.88185732  1
  O  O167  1  0.42183749  0.95570933  0.92225341  1
  Zn  Zn168  1  0.41669393  0.95288569  0.69264239  1
  Zn  Zn169  1  0.32811497  0.96823491  0.96179957  1
  O  O170  1  0.31274036  0.54299667  0.77143632  1
  O  O171  1  0.36364214  0.70208362  0.96176706  1
  O  O172  1  0.42399724  0.86432050  0.81298275  1
  C  C173  1  0.30721763  0.54391882  0.84518075  1
  C  C174  1  0.37646428  0.53247197  0.97435312  1
  H  H175  1  0.49131913  0.76918291  0.79971434  1
  H  H176  1  0.47852184  0.65982372  0.97155514  1
  H  H177  1  0.27881507  0.87127642  0.85265685  1
  O  O178  1  0.49595621  0.88986514  0.65610000  1
  C  C179  1  0.49583745  0.83833902  0.91494678  1
  O  O180  1  0.35311990  0.66092106  0.54535533  1
  H  H181  1  0.66119042  0.11778315  0.16057302  1
  H  H182  1  0.66766015  0.29199364  0.14394633  1
  Zn  Zn183  1  0.71290047  0.42549242  0.13723963  1
  H  H184  1  0.60170878  0.13467179  0.36867035  1
  C  C185  1  0.64905493  0.27063044  0.31619827  1
  C  C186  1  0.58108096  0.08774634  0.41561874  1
  C  C187  1  0.57957052  0.44579679  0.05328000  1
  O  O188  1  0.67052078  0.31654662  0.08615902  1
  O  O189  1  0.60183408  0.24718686  0.30117797  1
  H  H190  1  0.60800308  0.38596550  0.07672090  1
  O  O191  1  0.66104215  0.09059685  0.10784936  1
  C  C192  1  0.74428551  0.45828160  0.46079966  1
  O  O193  1  0.69444671  0.29642967  0.33139336  1
  C  C194  1  0.55691074  0.12344888  0.48627283  1
  O  O195  1  0.64155035  0.49578893  0.19886323  1
  Zn  Zn196  1  0.68342774  0.19577940  0.00404188  1
  H  H197  1  0.55735524  0.20324282  0.49726007  1
  H  H198  1  0.66644686  0.15766647  0.64125572  1
  O  O199  1  0.60665929  0.15663435  0.94351531  1
  H  H200  1  0.54480203  0.31079729  0.74790575  1
  Zn  Zn201  1  0.71740362  0.00763342  0.75834198  1
  O  O202  1  0.70381775  0.24905980  0.86473583  1
  C  C203  1  0.60230415  0.08159363  0.90390398  1
  C  C204  1  0.67273030  0.22535147  0.80264825  1
  C  C205  1  0.66594097  0.12249088  0.77544166  1
  C  C206  1  0.64172795  0.04994535  0.82859481  1
  O  O207  1  0.56377811  0.02555327  0.91656744  1
  C  C208  1  0.52808808  0.06487170  0.54416525  1
  C  C209  1  0.66767128  0.09751573  0.68538218  1
  O  O210  1  0.64588480  0.27899227  0.76042128  1
  Zn  Zn211  1  0.52594871  0.42378782  0.85769331  1
  C  C212  1  0.55074387  0.44750157  0.97538166  1
  O  O213  1  0.50933197  0.34329587  0.75580697  1
  O  O214  1  0.50547308  0.20510105  0.61859704  1
  O  O215  1  0.73263243  0.43130026  0.63220226  1
  C  C216  1  0.50033283  0.11820384  0.61603097  1
  Zn  Zn217  1  0.50369006  0.48271861  0.51678742  1
  H  H218  1  0.55584808  0.85048459  0.44514402  1
  C  C219  1  0.53659663  0.60595192  0.07324538  1
  O  O220  1  0.60001647  0.85633174  0.31688721  1
  C  C221  1  0.60575416  0.55482145  0.17648925  1
  O  O222  1  0.59995261  0.63269104  0.21308673  1
  C  C223  1  0.60645326  0.94417637  0.32624167  1
  H  H224  1  0.53102281  0.66293737  0.11719695  1
  C  C225  1  0.51601807  0.90494246  0.06894285  1
  O  O226  1  0.67777771  0.84607876  0.15202164  1
  O  O227  1  0.54531051  0.89466298  0.13225017  1
  Zn  Zn228  1  0.65442256  0.75418719  0.25281014  1
  C  C229  1  0.55052709  0.92861355  0.45575362  1
  H  H230  1  0.70638827  0.88050496  0.16892193  1
  C  C231  1  0.71298170  0.64199895  0.39478440  1
  C  C232  1  0.57476141  0.53388724  0.09746319  1
  H  H233  1  0.60320642  0.80605910  0.05168695  1
  O  O234  1  0.73978675  0.65671912  0.21392470  1
  C  C235  1  0.57913672  0.99009217  0.39948590  1
  O  O236  1  0.69852322  0.72420844  0.36393970  1
  C  C237  1  0.70826542  0.61261735  0.47879583  1
  Zn  Zn238  1  0.62746788  0.96660939  0.13762368  1
  C  C239  1  0.73714801  0.56833218  0.34178617  1
  O  O240  1  0.63258735  0.99634192  0.27492417  1
  C  C241  1  0.74757275  0.58352382  0.25275915  1
  C  C242  1  0.58647482  0.64770812  0.80279124  1
  Zn  Zn243  1  0.72154114  0.62597788  0.76370226  1
  H  H244  1  0.60729117  0.89720604  0.83754786  1
  C  C245  1  0.66588261  0.81762168  0.68741801  1
  C  C246  1  0.63724183  0.94566395  0.79901137  1
  C  C247  1  0.52767969  0.96464705  0.52824114  1
  O  O248  1  0.51042235  0.79589624  0.55138308  1
  H  H249  1  0.63368779  0.68886154  0.94874594  1
  Zn  Zn250  1  0.57161498  0.70675518  0.60501621  1
  O  O251  1  0.64893387  0.78609479  0.61714938  1
  C  C252  1  0.59780069  0.73256203  0.93636905  1
  C  C253  1  0.56502687  0.71764734  0.86391883  1
  O  O254  1  0.68705336  0.56319583  0.65163323  1
  C  C255  1  0.65587254  0.91631448  0.71591467  1
  C  C256  1  0.51802921  0.52357338  0.94753301  1
  C  C257  1  0.50972762  0.88080134  0.58088683  1
  O  O258  1  0.55976821  0.64368829  0.73431294  1
  C  C259  1  0.52432999  0.84567778  0.98913354  1
  O  O260  1  0.63079134  0.60414975  0.81930779  1
  H  H261  1  0.68847646  0.67096565  0.51520330  1
  O  O262  1  0.69118189  0.76933379  0.74145833  1
  H  H263  1  0.59789587  0.55872957  0.58749496  1
  O  O264  1  0.56937839  0.57775541  0.54608720  1
  C  C265  1  0.51793621  0.77547158  0.85406759  1
  C  C266  1  0.57758974  0.79475785  0.99536476  1
  C  C267  1  0.71340324  0.50764943  0.60525543  1
  C  C268  1  0.50709795  0.60258694  0.99600450  1
  C  C269  1  0.65750546  0.99532030  0.65472398  1
  H  H270  1  0.65108991  0.97722694  0.58845061  1
  C  C271  1  0.72254962  0.52904169  0.51568460  1
  C  C272  1  0.83236490  0.30765381  0.09798991  1
  C  C273  1  0.85516869  0.36140841  0.16058472  1
  C  C274  1  0.80974640  0.13263947  0.03858391  1
  H  H275  1  0.85219430  0.43949407  0.15579415  1
  H  H276  1  0.92189518  0.17793006  0.26167714  1
  O  O277  1  0.78178114  0.43549194  0.03079410  1
  H  H278  1  0.97023590  0.26281987  0.11252668  1
  C  C279  1  0.86843599  0.16008046  0.15846301  1
  C  C280  1  0.83592998  0.20521451  0.09723674  1
  O  O281  1  0.92474587  0.30906510  0.35809504  1
  C  C282  1  0.88364462  0.31296999  0.22458980  1
  C  C283  1  0.81342215  0.36847745  0.02131318  1
  O  O284  1  0.89856818  0.06161865  0.34923786  1
  C  C285  1  0.75022784  0.47795298  0.37535014  1
  H  H286  1  0.87043555  0.08238802  0.16356971  1
  C  C287  1  0.89495635  0.21787433  0.21942360  1
  O  O288  1  0.91799489  0.44699563  0.30654362  1
  O  O289  1  0.94775621  0.39649141  0.05243269  1
  C  C290  1  0.90905027  0.36309818  0.30083249  1
  O  O291  1  0.81985969  0.04747550  0.04091868  1
  Zn  Zn292  1  0.96759938  0.39796680  0.44674598  1
  H  H293  1  0.91403006  0.08664256  0.47786124  1
  H  H294  1  0.75834460  0.38925886  0.48660116  1
  H  H295  1  0.77143694  0.42443892  0.33419507  1
  C  C296  1  0.93939792  0.02261420  0.49100755  1
  C  C297  1  0.98453783  0.44485578  0.08860611  1
  C  C298  1  0.93794970  0.00933473  0.34259980  1
  C  C299  1  0.99776353  0.11122303  0.00391176  1
  O  O300  1  0.96721454  0.04069664  0.71089960  1
  Zn  Zn301  1  0.79792363  0.23820918  0.87968929  1
  O  O302  1  0.94843648  0.25396054  0.90952962  1
  Zn  Zn303  1  0.91848478  0.39892511  0.92080373  1
  C  C304  1  0.94645643  0.47185680  0.75732117  1
  O  O305  1  0.80101650  0.29728135  0.76074689  1
  O  O306  1  0.83308319  0.35099976  0.94682653  1
  C  C307  1  0.92094077  0.17708809  0.91158460  1
  O  O308  1  0.76663835  0.16362094  0.98622201  1
  O  O309  1  0.91732402  0.40639722  0.72785411  1
  C  C310  1  0.94963508  0.06495536  0.63938576  1
  C  C311  1  0.95014001  0.09701226  0.95569209  1
  O  O312  1  0.87622374  0.16699348  0.87020046  1
  O  O313  1  0.92905601  0.14548117  0.62519214  1
  O  O314  1  0.95701516  0.47464044  0.83397510  1
  Zn  Zn315  1  0.81861901  0.42240919  0.69893287  1
  Zn  Zn316  1  0.96870996  0.28562621  0.67059543  1
  O  O317  1  0.97898842  0.33093879  0.55236686  1
  H  H318  1  0.76208177  0.29781279  0.74335228  1
  C  C319  1  0.92679456  0.00317718  0.94772737  1
  H  H320  1  0.83652372  0.95311777  0.29047590  1
  O  O321  1  0.80840034  0.90948636  0.26548215  1
  C  C322  1  0.95965577  0.96732385  0.42635035  1
  O  O323  1  0.76449105  0.50764950  0.21330844  1
  O  O324  1  0.98438121  0.53326548  0.09687715  1
  H  H325  1  0.81623784  0.84992729  0.28955666  1
  O  O326  1  0.95445803  0.97691495  0.27129669  1
  O  O327  1  0.99604357  0.80587140  0.30388361  1
  O  O328  1  0.99719391  0.77023933  0.04518301  1
  C  C329  1  0.99975541  0.94254676  0.03919840  1
  H  H330  1  0.98815689  0.59308334  0.48157577  1
  C  C331  1  0.98963413  0.88165571  0.43657678  1
  C  C332  1  0.95858346  0.99701055  0.57089904  1
  O  O333  1  0.78317377  0.53356574  0.78363305  1
  C  C334  1  0.95986930  0.56191702  0.60979631  1
  H  H335  1  0.80686486  0.58734662  0.80513061  1
  C  C336  1  0.90063370  0.52549774  0.58019776  1
  O  O337  1  0.85908253  0.53529504  0.62652998  1
  O  O338  1  0.80901823  0.68720169  0.94027678  1
  O  O339  1  0.92836011  0.81527873  0.82579474  1
  C  C340  1  0.96864123  0.84436033  0.81066227  1
  C  C341  1  0.97398169  0.54693448  0.69614375  1
  C  C342  1  0.99977965  0.59824360  0.54941132  1
  C  C343  1  0.98355689  0.90760230  0.58703978  1
  H  H344  1  0.88779723  0.99288664  0.91186732  1
  O  O345  1  0.90141593  0.50180109  0.50704823  1
  O  O346  1  0.76829005  0.82968244  0.90368509  1
  C  C347  1  0.79014479  0.75817975  0.92076860  1
  C  C348  1  0.95459928  0.92642018  0.98479129  1
  H  H349  1  0.93930923  0.85468477  0.97473279  1
  H  H350  1  0.99774491  0.88963616  0.64737303  1
  C  C351  1  0.99886260  0.85206205  0.52001247  1
