# generated using pymatgen
data_Zn3H22(C7O2)6
_symmetry_space_group_name_H-M   'P 1'
_cell_length_a   16.12167078
_cell_length_b   15.93945372
_cell_length_c   30.38480515
_cell_angle_alpha   90.00000000
_cell_angle_beta   90.00000000
_cell_angle_gamma   90.00000000
_symmetry_Int_Tables_number   1
_chemical_formula_structural   Zn3H22(C7O2)6
_chemical_formula_sum   'Zn24 H176 C336 O96'
_cell_volume   7808.00237945
_cell_formula_units_Z   8
loop_
 _symmetry_equiv_pos_site_id
 _symmetry_equiv_pos_as_xyz
  1  'x, y, z'
loop_
 _atom_site_type_symbol
 _atom_site_label
 _atom_site_symmetry_multiplicity
 _atom_site_fract_x
 _atom_site_fract_y
 _atom_site_fract_z
 _atom_site_occupancy
  O  O0  1  0.43599685  0.10711652  0.02112183  1
  H  H1  1  0.29440566  0.02593214  0.22299024  1
  O  O2  1  0.00116415  0.38695865  0.07755407  1
  C  C3  1  0.42306141  0.03449633  0.19735660  1
  C  C4  1  0.09718347  0.08357005  0.04078020  1
  H  H5  1  0.40051083  0.04128412  0.16304105  1
  C  C6  1  0.14586181  0.21526621  0.22424546  1
  C  C7  1  0.14100184  0.06671918  0.20110292  1
  C  C8  1  0.19904845  0.23801520  0.19125303  1
  C  C9  1  0.27571958  0.19039307  0.12227257  1
  C  C10  1  0.12362889  0.13032175  0.23194676  1
  O  O11  1  0.30173892  0.26113628  0.11015606  1
  O  O12  1  0.29223579  0.13026051  0.09940202  1
  C  C13  1  0.17165830  0.45339297  0.15566334  1
  Zn  Zn14  1  0.38874593  0.22232906  0.05439988  1
  H  H15  1  0.11436296  0.00287776  0.20395357  1
  H  H16  1  0.44175182  0.35688598  0.00299790  1
  C  C17  1  0.06603493  0.45480180  0.23697317  1
  C  C18  1  0.22038234  0.17316075  0.16260671  1
  C  C19  1  0.19121659  0.09030923  0.16683316  1
  H  H20  1  0.21934995  0.30615770  0.18643831  1
  H  H21  1  0.48732723  0.15194698  0.14961286  1
  O  O22  1  0.06320132  0.13503883  0.06739820  1
  C  C23  1  0.36378953  0.02128113  0.23036788  1
  C  C24  1  0.15345914  0.43547936  0.23693435  1
  C  C25  1  0.20464072  0.46412246  0.19860462  1
  H  H26  1  0.21369206  0.04481350  0.14270159  1
  H  H27  1  0.12481530  0.26728534  0.24434128  1
  O  O28  1  0.49299940  0.25283770  0.09802786  1
  H  H29  1  0.07165469  0.02919234  0.12228618  1
  H  H30  1  0.10922071  0.42304527  0.15061564  1
  H  H31  1  0.03802348  0.48757808  0.20892820  1
  C  C32  1  0.21371550  0.48737939  0.12058517  1
  H  H33  1  0.18729165  0.48116995  0.08718986  1
  C  C34  1  0.00663774  0.46444859  0.08658252  1
  O  O35  1  0.11560725  0.09972871  0.00114620  1
  C  C36  1  0.01914231  0.43421731  0.27497876  1
  O  O37  1  0.19738496  0.49357795  0.36282818  1
  C  C38  1  0.30847796  0.36587996  0.34402111  1
  C  C39  1  0.44494875  0.37497160  0.27688465  1
  H  H40  1  0.07359415  0.28221911  0.38317514  1
  C  C41  1  0.01807589  0.00041066  0.31995079  1
  C  C42  1  0.06915507  0.11352144  0.27145048  1
  C  C43  1  0.26292056  0.36678256  0.38281060  1
  H  H44  1  0.24208019  0.10247692  0.29887539  1
  O  O45  1  0.34005564  0.09663206  0.43506056  1
  C  C46  1  0.30428215  0.16549559  0.44214386  1
  H  H47  1  0.39432949  0.17245235  0.36491244  1
  H  H48  1  0.31361699  0.41537139  0.31924195  1
  C  C49  1  0.36112952  0.29360014  0.33927431  1
  C  C50  1  0.42240831  0.30136917  0.30027613  1
  C  C51  1  0.14029618  0.36102761  0.30732861  1
  C  C52  1  0.25649236  0.04984502  0.32139504  1
  H  H53  1  0.41931142  0.43939867  0.28492204  1
  C  C54  1  0.18801667  0.38387934  0.27110231  1
  C  C55  1  0.05500349  0.38937312  0.30970871  1
  H  H56  1  0.16657923  0.32032068  0.33326059  1
  O  O57  1  0.04705919  0.19859883  0.44493307  1
  H  H58  1  0.15839913  0.08173015  0.36725895  1
  C  C59  1  0.20132022  0.43695073  0.39008973  1
  H  H60  1  0.23244083  0.31177459  0.44913654  1
  C  C61  1  0.30475214  0.23404435  0.40783988  1
  C  C62  1  0.35581612  0.22885010  0.36927715  1
  C  C63  1  0.26120767  0.30539773  0.41649866  1
  C  C64  1  0.21225919  0.04150241  0.35960603  1
  C  C65  1  0.01584165  0.32069462  0.38293188  1
  C  C66  1  0.45735245  0.22085283  0.28955660  1
  O  O67  1  0.25857322  0.17531054  0.47587576  1
  Zn  Zn68  1  0.45584878  0.05881802  0.46899849  1
  H  H69  1  0.43712346  0.16226377  0.30604486  1
  Zn  Zn70  1  0.14010738  0.11481720  0.48166570  1
  C  C71  1  0.06064941  0.02806258  0.28245240  1
  H  H72  1  0.06618759  0.44112278  0.48278591  1
  O  O73  1  0.15485215  0.44254788  0.42538992  1
  C  C74  1  0.03191466  0.17654372  0.29789331  1
  H  H75  1  0.03526458  0.24084452  0.28835040  1
  Zn  Zn76  1  0.21282570  0.47740595  0.48999179  1
  H  H77  1  0.25093031  0.36082410  0.26647264  1
  O  O78  1  0.12523061  0.00782614  0.43900726  1
  C  C79  1  0.47944160  0.00665738  0.28511718  1
  C  C80  1  0.39225843  0.01054934  0.27603256  1
  C  C81  1  0.16190136  0.45800770  0.70652632  1
  C  C82  1  0.03428289  0.44588051  0.51496744  1
  O  O83  1  0.33040944  0.38525012  0.57551312  1
  H  H84  1  0.04628868  0.15822010  0.73157357  1
  C  C85  1  0.03604339  0.12503752  0.64540860  1
  O  O86  1  0.42315249  0.15736108  0.68155178  1
  C  C87  1  0.23685311  0.45396332  0.62445829  1
  H  H88  1  0.03111632  0.36599263  0.62015777  1
  C  C89  1  0.35913020  0.19421193  0.68732164  1
  H  H90  1  0.07372617  0.17502254  0.66082692  1
  C  C91  1  0.06385919  0.08087374  0.61002613  1
  C  C92  1  0.14607220  0.09783078  0.58836453  1
  C  C93  1  0.45915953  0.18175441  0.55517780  1
  C  C94  1  0.05405480  0.39851452  0.55277093  1
  C  C95  1  0.13491990  0.34824481  0.54869292  1
  H  H96  1  0.43152329  0.28808450  0.62662256  1
  O  O97  1  0.15803268  0.05911135  0.55309258  1
  C  C98  1  0.42955980  0.48345674  0.74500004  1
  O  O99  1  0.33478275  0.25282290  0.66114623  1
  O  O100  1  0.38663047  0.17419866  0.56901753  1
  O  O101  1  0.16285038  0.30534819  0.57882124  1
  C  C102  1  0.46635098  0.49972103  0.66412075  1
  Zn  Zn103  1  0.28441151  0.24917608  0.59376713  1
  O  O104  1  0.17079104  0.35491550  0.51215275  1
  O  O105  1  0.20133034  0.14030154  0.60631274  1
  C  C106  1  0.48932314  0.30117967  0.60885109  1
  C  C107  1  0.47354918  0.40395317  0.74021787  1
  H  H108  1  0.27878481  0.40217809  0.73417326  1
  C  C109  1  0.28116718  0.44319246  0.57983265  1
  C  C110  1  0.27691975  0.41729710  0.66159744  1
  C  C111  1  0.24271939  0.42144185  0.70373024  1
  H  H112  1  0.34186942  0.39091243  0.65798012  1
  H  H113  1  0.22228958  0.28369695  0.70757898  1
  C  C114  1  0.22807195  0.22711821  0.73017728  1
  C  C115  1  0.29525944  0.17083061  0.72198887  1
  H  H116  1  0.35583848  0.05278125  0.73665024  1
  C  C117  1  0.11967944  0.46978309  0.74946244  1
  C  C118  1  0.00815441  0.39877471  0.59081634  1
  O  O119  1  0.26780288  0.49701803  0.55054419  1
  O  O120  1  0.48757507  0.14010499  0.52427419  1
  C  C121  1  0.15958720  0.48725680  0.62708320  1
  C  C122  1  0.30956014  0.09692252  0.74534324  1
  C  C123  1  0.49865929  0.36995083  0.70020006  1
  C  C124  1  0.01256316  0.01982299  0.58995637  1
  C  C125  1  0.11884761  0.48625231  0.66698854  1
  H  H126  1  0.45426771  0.43283602  0.83106101  1
  O  O127  1  0.29590551  0.20240846  0.93812736  1
  H  H128  1  0.41947954  0.24398112  0.87664354  1
  H  H129  1  0.48515694  0.36773350  0.77114792  1
  Zn  Zn130  1  0.18306792  0.19766779  0.97286821  1
  C  C131  1  0.03725560  0.13885678  0.88531155  1
  H  H132  1  0.25808747  0.02058427  0.80105115  1
  O  O133  1  0.01879344  0.31150507  0.99732027  1
  C  C134  1  0.18939718  0.13760608  0.79065558  1
  C  C135  1  0.05030614  0.41820915  0.89739573  1
  C  C136  1  0.10067536  0.16711930  0.85792649  1
  C  C137  1  0.12437225  0.11140188  0.82424107  1
  C  C138  1  0.45735078  0.34862862  0.96838534  1
  C  C139  1  0.34031394  0.25143307  0.95916288  1
  H  H140  1  0.09758571  0.37773885  0.88082787  1
  C  C141  1  0.01900972  0.00594676  0.83728420  1
  H  H142  1  0.12546580  0.26219339  0.77181647  1
  O  O143  1  0.10057886  0.28086577  0.94276300  1
  C  C144  1  0.44429546  0.28947236  0.89742713  1
  C  C145  1  0.17893901  0.21541066  0.76607203  1
  H  H146  1  0.13442396  0.22855749  0.86142984  1
  C  C147  1  0.05498810  0.33146282  0.96322533  1
  C  C148  1  0.25246456  0.07912307  0.77904745  1
  C  C149  1  0.41269045  0.29469598  0.94046362  1
  C  C150  1  0.02629387  0.41199437  0.94118981  1
  C  C151  1  0.08864135  0.03206159  0.81232214  1
  H  H152  1  0.01840742  0.17613065  0.91467885  1
  H  H153  1  0.47651868  0.19564382  0.83207583  1
  C  C154  1  0.40541405  0.48097969  0.82702418  1
  H  H155  1  0.38771013  0.48445341  0.89578006  1
  C  C156  1  0.00105691  0.05957366  0.87559724  1
  C  C157  1  0.02174991  0.49078555  0.87680809  1
  C  C158  1  0.13835947  0.48227448  0.82716427  1
  H  H159  1  0.17715324  0.47848862  0.85829977  1
  C  C160  1  0.04937923  0.49947960  0.82938306  1
  C  C161  1  0.17358514  0.46476297  0.78640086  1
  H  H162  1  0.24485208  0.45878127  0.78383833  1
  O  O163  1  0.31428615  0.26288105  0.99900714  1
  C  C164  1  0.03233448  0.48448222  0.75135871  1
  C  C165  1  0.44804808  0.82561862  0.11477264  1
  H  H166  1  0.30048592  0.67695692  0.14242123  1
  C  C167  1  0.15244580  0.77703487  0.01091933  1
  C  C168  1  0.05864407  0.88041013  0.16208239  1
  O  O169  1  0.04460436  0.51343988  0.06490385  1
  C  C170  1  0.09829503  0.82481757  0.19268318  1
  O  O171  1  0.29453186  0.54745759  0.05131003  1
  H  H172  1  0.38282458  0.73073579  0.07751943  1
  C  C173  1  0.45612070  0.86459403  0.15674143  1
  C  C174  1  0.29416533  0.75218847  0.22612576  1
  C  C175  1  0.34741490  0.77216596  0.18775974  1
  H  H176  1  0.43443595  0.98517920  0.08080237  1
  C  C177  1  0.40422901  0.83935507  0.19063212  1
  C  C178  1  0.49951194  0.86036837  0.07573595  1
  H  H179  1  0.24933620  0.63184888  0.19839465  1
  C  C180  1  0.24903084  0.67485630  0.22853875  1
  H  H181  1  0.41149499  0.86912483  0.22358441  1
  C  C182  1  0.12603319  0.85029811  0.04041993  1
  C  C183  1  0.47228609  0.94910399  0.05992390  1
  C  C184  1  0.08347444  0.97576869  0.09876779  1
  H  H185  1  0.11126141  0.76857773  0.09386694  1
  H  H186  1  0.15843527  0.79831249  0.18636544  1
  C  C187  1  0.12448541  0.93079056  0.02446588  1
  C  C188  1  0.34084409  0.73131419  0.14590763  1
  C  C189  1  0.08133525  0.89450824  0.11288580  1
  H  H190  1  0.39567113  0.55524964  0.17057309  1
  C  C191  1  0.38619938  0.76187767  0.10999300  1
  C  C192  1  0.10242975  0.83101391  0.08306403  1
  C  C193  1  0.33530304  0.55102162  0.08611452  1
  O  O194  1  0.16227041  0.70533199  0.02447092  1
  H  H195  1  0.42457160  0.66172580  0.24694426  1
  C  C196  1  0.05681079  0.80629724  0.23157599  1
  O  O197  1  0.41054785  0.56982837  0.08783062  1
  O  O198  1  0.38250768  0.70222742  0.00485975  1
  C  C199  1  0.29189200  0.52354062  0.12723468  1
  C  C200  1  0.33350766  0.52912840  0.16764936  1
  H  H201  1  0.49279919  0.68289532  0.20328946  1
  C  C202  1  0.10333894  0.99510868  0.05447215  1
  C  C203  1  0.28466192  0.50444990  0.20412699  1
  H  H204  1  0.31026924  0.50649348  0.23654283  1
  C  C205  1  0.45234938  0.73889129  0.40666845  1
  C  C206  1  0.19248001  0.71527955  0.30017918  1
  C  C207  1  0.22178398  0.66189499  0.46434071  1
  C  C208  1  0.30333139  0.92095100  0.37850230  1
  C  C209  1  0.20063644  0.65739233  0.26458386  1
  Zn  Zn210  1  0.09109922  0.57308949  0.40209459  1
  H  H211  1  0.30712984  0.80302290  0.48067883  1
  C  C212  1  0.18082690  0.95821752  0.42842337  1
  H  H213  1  0.32616581  0.56659139  0.41290357  1
  C  C214  1  0.41453548  0.78711345  0.43899117  1
  O  O215  1  0.14293884  0.75999500  0.36918640  1
  C  C216  1  0.30687958  0.68303265  0.44791728  1
  C  C217  1  0.35044736  0.93033623  0.34163840  1
  C  C218  1  0.23434627  0.97543399  0.38921108  1
  O  O219  1  0.18016318  0.71689646  0.48236357  1
  H  H220  1  0.23453348  0.83601448  0.32522973  1
  H  H221  1  0.16605176  0.59726046  0.26742428  1
  C  C222  1  0.34151862  0.76074845  0.45835014  1
  C  C223  1  0.45456674  0.87217049  0.44595434  1
  H  H224  1  0.01160660  0.93524118  0.32917919  1
  C  C225  1  0.34834475  0.63075269  0.41747263  1
  C  C226  1  0.28952075  0.80891823  0.26279275  1
  C  C227  1  0.23656495  0.79269402  0.29790798  1
  H  H228  1  0.31474975  0.86794507  0.40085979  1
  C  C229  1  0.14237501  0.70062675  0.34169484  1
  Zn  Zn230  1  0.10979275  0.79581630  0.43778651  1
  O  O231  1  0.10109454  0.63562172  0.34603034  1
  C  C232  1  0.41886231  0.66068806  0.39474043  1
  O  O233  1  0.18745152  0.59012770  0.45624031  1
  O  O234  1  0.19432733  0.89120967  0.45022873  1
  C  C235  1  0.45326022  0.61439199  0.35506355  1
  H  H236  1  0.09083593  0.98452222  0.25986869  1
  H  H237  1  0.40800401  0.89128499  0.33888165  1
  C  C238  1  0.45324856  0.63018881  0.27624411  1
  C  C239  1  0.41816182  0.65297076  0.31747349  1
  H  H240  1  0.49859373  0.99257832  0.32040495  1
  H  H241  1  0.38125550  0.71107937  0.31880392  1
  O  O242  1  0.42202325  0.93062332  0.46755193  1
  H  H243  1  0.32382000  0.87022697  0.26387181  1
  H  H244  1  0.00030805  0.91102613  0.37934672  1
  H  H245  1  0.07847715  0.75709817  0.25652394  1
  C  C246  1  0.33125604  0.99986573  0.31344566  1
  H  H247  1  0.40143807  0.76611118  0.73317627  1
  H  H248  1  0.39190267  0.58288286  0.70226418  1
  C  C249  1  0.48282972  0.68914917  0.58957272  1
  C  C250  1  0.27792354  0.66967710  0.65222052  1
  C  C251  1  0.30188307  0.70808300  0.69335985  1
  C  C252  1  0.44377786  0.73201725  0.66949070  1
  H  H253  1  0.03505114  0.98571637  0.56217225  1
  C  C254  1  0.33955670  0.66855851  0.61894664  1
  H  H255  1  0.32493627  0.65188089  0.58346449  1
  H  H256  1  0.44429548  0.56729259  0.56341034  1
  H  H257  1  0.16693019  0.60615786  0.70687442  1
  H  H258  1  0.12579062  0.50911949  0.59801538  1
  H  H259  1  0.21447967  0.64032163  0.64760045  1
  C  C260  1  0.48729295  0.62090592  0.55964908  1
  C  C261  1  0.38305732  0.74064981  0.70136417  1
  C  C262  1  0.42335665  0.69442421  0.62856462  1
  C  C263  1  0.23527485  0.71479505  0.72878970  1
  C  C264  1  0.42723191  0.52586759  0.70307130  1
  C  C265  1  0.16718524  0.65521331  0.73054080  1
  H  H266  1  0.46761576  0.53923183  0.63460146  1
  H  H267  1  0.05493741  0.51093848  0.66811545  1
  O  O268  1  0.28332877  0.93369713  0.83632089  1
  C  C269  1  0.11333254  0.73577637  0.78965742  1
  Zn  Zn270  1  0.14904160  0.77945143  0.90577208  1
  C  C271  1  0.48727494  0.72301340  0.90095943  1
  C  C272  1  0.10851827  0.66276519  0.76286431  1
  O  O273  1  0.19696241  0.65106619  0.90030873  1
  C  C274  1  0.27623289  0.88968792  0.86931165  1
  C  C275  1  0.04481828  0.73879213  0.82440182  1
  C  C276  1  0.17569292  0.79687134  0.78691078  1
  H  H277  1  0.39546021  0.83917771  0.81917696  1
  H  H278  1  0.30433261  0.79031415  0.94759933  1
  C  C279  1  0.27253974  0.59438203  0.82033097  1
  C  C280  1  0.40648392  0.81138652  0.85158429  1
  C  C281  1  0.34588122  0.82908288  0.88200431  1
  O  O282  1  0.05669382  0.79054432  0.85629977  1
  C  C283  1  0.35278772  0.78819066  0.92217942  1
  C  C284  1  0.31922186  0.57592827  0.78247607  1
  C  C285  1  0.47780084  0.75905684  0.85934263  1
  O  O286  1  0.21281781  0.89523542  0.89436779  1
  H  H287  1  0.17766119  0.84982191  0.80860969  1
  Zn  Zn288  1  0.26180933  0.62992840  0.99961029  1
  C  C289  1  0.25768025  0.60006554  0.90272001  1
  C  C290  1  0.23604458  0.78831045  0.75448945  1
  C  C291  1  0.42203167  0.73791251  0.93030215  1
  H  H292  1  0.22372152  0.64287523  0.81613240  1
  H  H293  1  0.44135487  0.65156117  0.79442438  1
  C  C294  1  0.43769368  0.70321789  0.97653364  1
  O  O295  1  0.17794492  0.79953339  0.97345647  1
  C  C296  1  0.29839683  0.56568235  0.86230536  1
  O  O297  1  0.28530156  0.57169752  0.93764216  1
  H  H298  1  0.06115490  0.61454293  0.76715565  1
  H  H299  1  0.10800532  0.99816440  0.78322352  1
  C  C300  1  0.38557667  0.51515646  0.78422571  1
  C  C301  1  0.36396177  0.50647367  0.86474754  1
  H  H302  1  0.28353266  0.83768845  0.75037595  1
  H  H303  1  0.14231314  0.94185230  0.99047311  1
  H  H304  1  0.30217480  0.60455043  0.75116193  1
  O  O305  1  0.52587789  0.45419339  0.02772411  1
  C  C306  1  0.92197079  0.43894318  0.15617815  1
  C  C307  1  0.57233564  0.05569769  0.17392383  1
  C  C308  1  0.79332560  0.02736699  0.13156780  1
  H  H309  1  0.93154454  0.36860154  0.15208497  1
  C  C310  1  0.62798567  0.28701305  0.20739672  1
  C  C311  1  0.56671547  0.22965453  0.08987123  1
  C  C312  1  0.75890531  0.27486528  0.15069899  1
  C  C313  1  0.69901781  0.33610381  0.13815852  1
  C  C314  1  0.83044813  0.27295357  0.12092047  1
  O  O315  1  0.84805440  0.04932781  0.10550326  1
  H  H316  1  0.73144216  0.16363119  0.08809971  1
  C  C317  1  0.50922124  0.08363600  0.01742055  1
  C  C318  1  0.60232325  0.15646005  0.11517821  1
  H  H319  1  0.70607973  0.37115273  0.10792636  1
  O  O320  1  0.82536631  0.31658484  0.08701908  1
  C  C321  1  0.69075062  0.22645253  0.21620618  1
  H  H322  1  0.80489615  0.17453139  0.19227018  1
  C  C323  1  0.63502554  0.33955271  0.16897496  1
  O  O324  1  0.88640193  0.22519808  0.12989170  1
  C  C325  1  0.68492329  0.12997168  0.11054289  1
  C  C326  1  0.75687913  0.22044688  0.18594502  1
  C  C327  1  0.55080501  0.12550688  0.14865043  1
  Zn  Zn328  1  0.94116487  0.14324578  0.08378994  1
  H  H329  1  0.58371622  0.38486151  0.16216683  1
  C  C330  1  0.70595098  0.06261492  0.13718358  1
  Zn  Zn331  1  0.90925251  0.31740924  0.03578404  1
  O  O332  1  0.61549770  0.26858338  0.06538149  1
  H  H333  1  0.94339070  0.31694357  0.21259004  1
  C  C334  1  0.95472505  0.49587165  0.12679006  1
  H  H335  1  0.67006374  0.01897748  0.02693584  1
  C  C336  1  0.82355409  0.13133936  0.00129436  1
  H  H337  1  0.71933228  0.48114983  0.16337982  1
  C  C338  1  0.85351545  0.41758139  0.22833493  1
  O  O339  1  0.88101131  0.16935016  0.02125392  1
  O  O340  1  0.74971137  0.13298762  0.01620366  1
  C  C341  1  0.65317805  0.02538029  0.16881738  1
  C  C342  1  0.87262503  0.47263716  0.19162217  1
  C  C343  1  0.89093287  0.33577106  0.23427502  1
  C  C344  1  0.55710706  0.29260791  0.23941276  1
  H  H345  1  0.65759494  0.47879668  0.23945591  1
  H  H346  1  0.54626978  0.15522175  0.24698257  1
  C  C347  1  0.51053484  0.02987004  0.20921663  1
  C  C348  1  0.53215564  0.00065612  0.03534478  1
  C  C349  1  0.51182048  0.36911389  0.24697176  1
  H  H350  1  0.68423840  0.18382683  0.24500242  1
  H  H351  1  0.52732633  0.43107970  0.23081357  1
  H  H352  1  0.96154864  0.45103900  0.00111096  1
  Zn  Zn353  1  0.65041020  0.21760089  0.00496203  1
  C  C354  1  0.63250805  0.15140065  0.37133895  1
  H  H355  1  0.72399967  0.05469759  0.35639735  1
  C  C356  1  0.66050513  0.28715097  0.34161111  1
  O  O357  1  0.71172589  0.01736833  0.48828554  1
  C  C358  1  0.96345133  0.31008247  0.41866702  1
  C  C359  1  0.58542469  0.08709806  0.39611143  1
  C  C360  1  0.82708368  0.02364075  0.44050174  1
  C  C361  1  0.75700505  0.06464704  0.46314790  1
  C  C362  1  0.76586803  0.39879315  0.29554880  1
  C  C363  1  0.73534653  0.25941437  0.32031200  1
  C  C364  1  0.52313731  0.21705604  0.25882186  1
  C  C365  1  0.79096237  0.31157377  0.29262073  1
  C  C366  1  0.75598725  0.17333205  0.32522451  1
  H  H367  1  0.81285283  0.15179283  0.31077741  1
  C  C368  1  0.60726902  0.23572380  0.36463808  1
  C  C369  1  0.89022455  0.35605234  0.42461259  1
  H  H370  1  0.55142975  0.26139457  0.37981093  1
  H  H371  1  0.84988076  0.13541840  0.40127041  1
  O  O372  1  0.75580332  0.46846847  0.42203061  1
  O  O373  1  0.74325801  0.14179452  0.45913092  1
  O  O374  1  0.51881553  0.10629954  0.41469472  1
  H  H375  1  0.85087791  0.35080005  0.45574639  1
  C  C376  1  0.70565937  0.11919201  0.35008238  1
  C  C377  1  0.79730572  0.44945979  0.26240625  1
  H  H378  1  0.87805856  0.21457944  0.26790366  1
  C  C379  1  0.86764594  0.07120048  0.40722030  1
  H  H380  1  0.91197739  0.48342501  0.33323698  1
  H  H381  1  0.65132719  0.35212147  0.34148812  1
  C  C382  1  0.87610154  0.41544957  0.39140675  1
  C  C383  1  0.92751741  0.42837873  0.35500954  1
  H  H384  1  0.95058094  0.44381258  0.27651022  1
  C  C385  1  0.85720784  0.28135649  0.26490439  1
  H  H386  1  0.73406309  0.42578082  0.32356274  1
  C  C387  1  0.81256502  0.48684213  0.39591339  1
  O  O388  1  0.93929568  0.22909647  0.48380621  1
  H  H389  1  0.95926431  0.19968041  0.35794088  1
  C  C390  1  0.98618899  0.24380844  0.45207739  1
  C  C391  1  0.93023985  0.03071956  0.38473476  1
  H  H392  1  0.59514912  0.47983991  0.30751160  1
  O  O393  1  0.60805221  0.01036919  0.39722775  1
  C  C394  1  0.98625282  0.15390799  0.33552179  1
  C  C395  1  0.97861900  0.06691873  0.34627357  1
  O  O396  1  0.52160818  0.49577332  0.48769185  1
  C  C397  1  0.99686312  0.37767554  0.34818805  1
  Zn  Zn398  1  0.80810751  0.23091713  0.49791694  1
  C  C399  1  0.54031037  0.00782310  0.25070987  1
  H  H400  1  0.61346425  0.13770345  0.62585799  1
  O  O401  1  0.81577781  0.21306524  0.57276776  1
  C  C402  1  0.92121065  0.39709532  0.67296350  1
  C  C403  1  0.60862764  0.20647940  0.68692519  1
  C  C404  1  0.96390253  0.49524023  0.51816289  1
  H  H405  1  0.64586103  0.45265075  0.60751178  1
  C  C406  1  0.83150504  0.46396837  0.72734876  1
  C  C407  1  0.89190264  0.40080132  0.71684618  1
  H  H408  1  0.91077099  0.35571721  0.74352086  1
  C  C409  1  0.64135460  0.18573477  0.64673117  1
  C  C410  1  0.58432516  0.27412581  0.55278562  1
  O  O411  1  0.74299551  0.43017419  0.54318779  1
  C  C412  1  0.63202808  0.34580124  0.56149882  1
  C  C413  1  0.70531337  0.36580166  0.53484037  1
  C  C414  1  0.71513110  0.22385390  0.63090984  1
  C  C415  1  0.61165913  0.39684461  0.59792481  1
  H  H416  1  0.73573602  0.37512469  0.71104727  1
  C  C417  1  0.92435172  0.15027942  0.70329594  1
  C  C418  1  0.53766498  0.37307229  0.62052907  1
  H  H419  1  0.84166017  0.03638742  0.65466442  1
  C  C420  1  0.93503575  0.44923116  0.59340407  1
  C  C421  1  0.75044739  0.18771615  0.59005764  1
  H  H422  1  0.51823415  0.30356453  0.69687863  1
  H  H423  1  0.79699359  0.33063562  0.63914710  1
  C  C424  1  0.90050658  0.04901112  0.64245341  1
  C  C425  1  0.65423942  0.26293201  0.71463780  1
  C  C426  1  0.89814613  0.45476366  0.63898864  1
  O  O427  1  0.70695490  0.13263698  0.57054742  1
  C  C428  1  0.74596428  0.29419440  0.65356914  1
  C  C429  1  0.95688095  0.10518983  0.66398233  1
  H  H430  1  0.60534296  0.23590035  0.52424291  1
  H  H431  1  0.96736451  0.34765377  0.66693934  1
  H  H432  1  0.78872624  0.15052871  0.68285627  1
  C  C433  1  0.71561104  0.31485922  0.69407060  1
  H  H434  1  0.55105890  0.18156240  0.70258178  1
  C  C435  1  0.83559869  0.16098960  0.70893955  1
  H  H436  1  0.99879599  0.49420806  0.72117837  1
  C  C437  1  0.93328459  0.00631396  0.60438113  1
  C  C438  1  0.50536332  0.41766848  0.66115952  1
  Zn  Zn439  1  0.71235321  0.00988899  0.55671829  1
  C  C440  1  0.51075262  0.25077191  0.57373636  1
  C  C441  1  0.98256774  0.16748634  0.73773968  1
  O  O442  1  0.71968241  0.32139818  0.50098373  1
  H  H443  1  0.66565940  0.25739950  0.90140367  1
  H  H444  1  0.99398159  0.18515005  0.80875940  1
  C  C445  1  0.77143543  0.33563433  0.96046143  1
  H  H446  1  0.71992894  0.03025409  0.96343473  1
  C  C447  1  0.87517614  0.30143290  0.90019112  1
  H  H448  1  0.84926936  0.36721453  0.80161188  1
  C  C449  1  0.73112246  0.26245483  0.88990107  1
  O  O450  1  0.69974313  0.31975655  0.97262862  1
  C  C451  1  0.55353959  0.30865179  0.84070665  1
  C  C452  1  0.83565908  0.22899081  0.83080146  1
  C  C453  1  0.82718727  0.43213762  0.80959581  1
  C  C454  1  0.77499374  0.02988684  0.94504626  1
  C  C455  1  0.55857003  0.38897801  0.91295351  1
  C  C456  1  0.62135525  0.27585646  0.76003040  1
  C  C457  1  0.75264819  0.23599624  0.84777546  1
  C  C458  1  0.92550296  0.03582325  0.90239091  1
  H  H459  1  0.61504588  0.42011144  0.90544684  1
  H  H460  1  0.70475991  0.20566641  0.82920754  1
  C  C461  1  0.89757536  0.26185920  0.86112042  1
  C  C462  1  0.86573442  0.19798636  0.78757677  1
  O  O463  1  0.81880096  0.37461068  0.98617099  1
  H  H464  1  0.92208299  0.33200696  0.92024555  1
  C  C465  1  0.79311216  0.30009371  0.91597672  1
  C  C466  1  0.97522985  0.46614694  0.96567730  1
  H  H467  1  0.63260045  0.42261077  0.83906271  1
  C  C468  1  0.56378984  0.44634363  0.99243475  1
  C  C469  1  0.61707204  0.36358401  0.82444702  1
  H  H470  1  0.80229369  0.41681569  0.87900962  1
  O  O471  1  0.56135633  0.11983073  0.99158090  1
  C  C472  1  0.65257213  0.34559225  0.78480281  1
  H  H473  1  0.96357589  0.13438309  0.95097792  1
  H  H474  1  0.70030341  0.38482052  0.77129042  1
  C  C475  1  0.83644662  0.08651773  0.95951918  1
  H  H476  1  0.96434706  0.26562906  0.85206955  1
  C  C477  1  0.91439869  0.08710870  0.93975195  1
  C  C478  1  0.81144417  0.48901574  0.77308162  1
  C  C479  1  0.79671955  0.45987746  0.84895916  1
  C  C480  1  0.52749639  0.39412195  0.95497534  1
  C  C481  1  0.55656158  0.22053720  0.77456889  1
  C  C482  1  0.95292471  0.18709299  0.77972152  1
  C  C483  1  0.52665342  0.23558976  0.81740222  1
  H  H484  1  0.53205347  0.16909714  0.75370930  1
  C  C485  1  0.51922454  0.32841854  0.88472825  1
  O  O486  1  0.62081200  0.49982514  0.98327507  1
  H  H487  1  0.74141457  0.19911334  0.75771153  1
  C  C488  1  0.80765294  0.18754213  0.75136337  1
  C  C489  1  0.62300549  0.97059834  0.03448482  1
  C  C490  1  0.56307648  0.62607493  0.15123704  1
  O  O491  1  0.62640953  0.62206789  0.06839614  1
  H  H492  1  0.67415755  0.97235660  0.18719500  1
  H  H493  1  0.60573816  0.76698255  0.07471476  1
  O  O494  1  0.81080731  0.73846436  0.17985257  1
  C  C495  1  0.88277131  0.61044982  0.16154397  1
  C  C496  1  0.72658335  0.84743745  0.02481315  1
  C  C497  1  0.53534968  0.63199464  0.19429874  1
  C  C498  1  0.58282614  0.82465339  0.06008124  1
  C  C499  1  0.93432637  0.58038856  0.12753992  1
  O  O500  1  0.88840522  0.74706244  0.12258515  1
  C  C501  1  0.64256010  0.88064321  0.03586182  1
  C  C502  1  0.86059309  0.70495659  0.15696567  1
  O  O503  1  0.79228573  0.87303655  0.04271697  1
  C  C504  1  0.85499804  0.56094231  0.19556357  1
  C  C505  1  0.98990573  0.93194200  0.17257034  1
  Zn  Zn506  1  0.83552598  0.85747918  0.11036810  1
  H  H507  1  0.81905028  0.58120742  0.22401410  1
  O  O508  1  0.71570733  0.52337386  0.07513927  1
  C  C509  1  0.66220095  0.57062565  0.09314993  1
  Zn  Zn510  1  0.50493761  0.58968619  0.04084892  1
  C  C511  1  0.94482369  0.91599077  0.21170463  1
  H  H512  1  0.53839603  0.66683600  0.12461580  1
  C  C513  1  0.63016649  0.57147075  0.14046936  1
  H  H514  1  0.96239130  0.97115270  0.14626649  1
  C  C515  1  0.97702371  0.85161091  0.23959509  1
  O  O516  1  0.80354023  0.95687585  0.15145357  1
  H  H517  1  0.88118509  0.94774274  0.21688174  1
  H  H518  1  0.95589727  0.62668137  0.10222379  1
  C  C519  1  0.56790943  0.57506394  0.22689028  1
  Zn  Zn520  1  0.74758535  0.51818282  0.00365742  1
  C  C521  1  0.67021370  0.52084621  0.17196848  1
  Zn  Zn522  1  0.52973420  0.88763046  0.00527750  1
  H  H523  1  0.50689786  0.91065067  0.16246050  1
  C  C524  1  0.63399582  0.51889065  0.21369756  1
  O  O525  1  0.72691345  0.78283936  0.00200451  1
  C  C526  1  0.81510045  0.88144020  0.32464252  1
  C  C527  1  0.52410017  0.57509316  0.27148332  1
  H  H528  1  0.60694026  0.99540506  0.25662799  1
  H  H529  1  0.89119745  0.95785803  0.28141125  1
  H  H530  1  0.78531232  0.93763850  0.34037877  1
  C  C531  1  0.80018565  0.79846519  0.33728314  1
  H  H532  1  0.63047350  0.70084271  0.49123283  1
  H  H533  1  0.81555494  0.91232876  0.48128651  1
  O  O534  1  0.63239679  0.56451150  0.47040663  1
  C  C535  1  0.94979993  0.94646611  0.39539904  1
  O  O536  1  0.98610148  0.77380660  0.42158987  1
  C  C537  1  0.87466818  0.89391285  0.29272379  1
  Zn  Zn538  1  0.84002050  0.66419860  0.42133454  1
  H  H539  1  0.77564547  0.51356185  0.26155574  1
  C  C540  1  0.92781756  0.81271466  0.43893720  1
  C  C541  1  0.84061745  0.72610902  0.32212741  1
  O  O542  1  0.51896019  0.88387140  0.42471422  1
  C  C543  1  0.54990237  0.53255945  0.31020942  1
  C  C544  1  0.92187246  0.82468504  0.27610044  1
  H  H545  1  0.82340628  0.66058219  0.33429394  1
  C  C546  1  0.73839969  0.78752660  0.37381849  1
  O  O547  1  0.72886461  0.71821288  0.39200660  1
  Zn  Zn548  1  0.64745768  0.90981292  0.44132187  1
  O  O549  1  0.87189092  0.77680345  0.46302134  1
  O  O550  1  0.87064921  0.58383926  0.47463442  1
  C  C551  1  0.91087698  0.90093403  0.42751800  1
  C  C552  1  0.90385623  0.74117429  0.29256377  1
  C  C553  1  0.93696239  0.54034388  0.47564992  1
  C  C554  1  0.84684208  0.94295883  0.45174718  1
  O  O555  1  0.69398715  0.84859057  0.38320221  1
  O  O556  1  0.81558927  0.55718602  0.37766245  1
  O  O557  1  0.98009513  0.53723559  0.44283273  1
  H  H558  1  0.54500002  0.52272700  0.38051806  1
  C  C559  1  0.51675391  0.55106049  0.35182757  1
  H  H560  1  0.94431614  0.68995677  0.27859508  1
  Zn  Zn561  1  0.75260022  0.51289138  0.49054761  1
  H  H562  1  0.50695753  0.76203017  0.38787884  1
  C  C563  1  0.56745117  0.55580122  0.49336717  1
  H  H564  1  0.86066924  0.54320798  0.55690974  1
  C  C565  1  0.58898671  0.69865109  0.51959659  1
  O  O566  1  0.63556943  0.90570407  0.56137107  1
  C  C567  1  0.62908249  0.70400468  0.74579681  1
  H  H568  1  0.76466407  0.79898193  0.70924103  1
  C  C569  1  0.62103560  0.65187023  0.66865014  1
  C  C570  1  0.87661592  0.94349711  0.58163969  1
  C  C571  1  0.76842078  0.73963677  0.64531482  1
  C  C572  1  0.58760429  0.76691957  0.54934697  1
  C  C573  1  0.76696114  0.65686818  0.57393376  1
  O  O574  1  0.72970113  0.60851977  0.54728866  1
  O  O575  1  0.80309238  0.93404522  0.59543738  1
  C  C576  1  0.54141855  0.62574322  0.52461616  1
  C  C577  1  0.72946509  0.67952426  0.61636746  1
  O  O578  1  0.90019335  0.90179791  0.54813331  1
  C  C579  1  0.65524823  0.63891371  0.62746246  1
  C  C580  1  0.73833121  0.75008317  0.68734259  1
  Zn  Zn581  1  0.82394157  0.80604537  0.52986092  1
  H  H582  1  0.62254084  0.60363390  0.60165354  1
  H  H583  1  0.75502921  0.56551002  0.70345355  1
  H  H584  1  0.82129159  0.77603530  0.63743047  1
  C  C585  1  0.66401200  0.70176870  0.70047595  1
  C  C586  1  0.63743603  0.84235460  0.53736571  1
  H  H587  1  0.56426602  0.62334247  0.68019373  1
  H  H588  1  0.81561036  0.55977407  0.62644228  1
  O  O589  1  0.83376350  0.69044876  0.56543481  1
  C  C590  1  0.80489481  0.52295310  0.69414212  1
  C  C591  1  0.91554263  0.50138274  0.55701775  1
  C  C592  1  0.52974610  0.76369108  0.58418862  1
  O  O593  1  0.68985571  0.83705877  0.50566004  1
  H  H594  1  0.51542554  0.81806619  0.60715673  1
  H  H595  1  0.52091527  0.61739949  0.72868232  1
  H  H596  1  0.50783317  0.76036712  0.67252386  1
  C  C597  1  0.83769480  0.51741958  0.65166126  1
  O  O598  1  0.71570397  0.64028774  0.90758653  1
  C  C599  1  0.55164118  0.66092437  0.75313589  1
  H  H600  1  0.54419170  0.68494477  0.90790928  1
  H  H601  1  0.72248199  0.65830362  0.82902709  1
  H  H602  1  0.63409155  0.82560491  0.83969252  1
  H  H603  1  0.92828479  0.51659616  0.79751446  1
  O  O604  1  0.89311594  0.67524744  0.94400715  1
  C  C605  1  0.72360711  0.90613398  0.90021035  1
  H  H606  1  0.87938901  0.92724745  0.86361109  1
  C  C607  1  0.53550686  0.73693675  0.82137706  1
  C  C608  1  0.74222620  0.56771300  0.90227463  1
  C  C609  1  0.74852629  0.59645890  0.82114128  1
  C  C610  1  0.90138425  0.60504247  0.96354393  1
  O  O611  1  0.65160787  0.92372145  0.90468794  1
  C  C612  1  0.97169704  0.54984332  0.89818303  1
  C  C613  1  0.79410352  0.97267767  0.91257621  1
  O  O614  1  0.74624217  0.83653825  0.88813455  1
  Zn  Zn615  1  0.77961494  0.74152032  0.94108079  1
  C  C616  1  0.61312282  0.77921571  0.81551320  1
  H  H617  1  0.95038765  0.60628459  0.87998349  1
  C  C618  1  0.76584272  0.54064112  0.85582340  1
  O  O619  1  0.98765172  0.69355033  0.82204575  1
  O  O620  1  0.75577819  0.51607934  0.93219062  1
  C  C621  1  0.95157337  0.53810589  0.94231871  1
  C  C622  1  0.77062224  0.56616543  0.77944061  1
  C  C623  1  0.50434215  0.67748534  0.79030786  1
  C  C624  1  0.66164730  0.76051815  0.77827101  1
  H  H625  1  0.72449721  0.78520553  0.77763303  1
  C  C626  1  0.86501528  0.97445893  0.89010372  1
  H  H627  1  0.98976097  0.94557315  0.82875188  1
  C  C628  1  0.99610605  0.50137614  0.79229053  1
  O  O629  1  0.86020497  0.59228452  0.99860792  1
  O  O630  1  0.50758511  0.67475364  0.98627791  1
  H  H631  1  0.76353152  0.60952042  0.75075417  1
