# generated using pymatgen
data_ZnH11(C7O2)3
_symmetry_space_group_name_H-M   'P 1'
_cell_length_a   14.02426078
_cell_length_b   15.04455377
_cell_length_c   33.02113426
_cell_angle_alpha   90.00000000
_cell_angle_beta   90.00000000
_cell_angle_gamma   90.00000000
_symmetry_Int_Tables_number   1
_chemical_formula_structural   ZnH11(C7O2)3
_chemical_formula_sum   'Zn16 H176 C336 O96'
_cell_volume   6967.08768892
_cell_formula_units_Z   16
loop_
 _symmetry_equiv_pos_site_id
 _symmetry_equiv_pos_as_xyz
  1  'x, y, z'
loop_
 _atom_site_type_symbol
 _atom_site_label
 _atom_site_symmetry_multiplicity
 _atom_site_fract_x
 _atom_site_fract_y
 _atom_site_fract_z
 _atom_site_occupancy
  H  H0  1  0.19982759  0.22680640  0.03675493  1
  C  C1  1  0.04134971  0.26424880  0.06784614  1
  H  H2  1  0.32964304  0.06765276  0.19085887  1
  H  H3  1  0.04612399  0.21403713  0.15124575  1
  C  C4  1  0.03345716  0.01467634  0.07402998  1
  C  C5  1  0.14993192  0.40806123  0.15392233  1
  C  C6  1  0.28900054  0.11607944  0.21156058  1
  C  C7  1  0.28616380  0.17696546  0.12965256  1
  O  O8  1  0.41628330  0.32300108  0.18200300  1
  C  C9  1  0.15334287  0.21742110  0.22673140  1
  C  C10  1  0.41350756  0.35316819  0.14818030  1
  C  C11  1  0.29332632  0.41825251  0.09410048  1
  C  C12  1  0.09371207  0.40588041  0.19399905  1
  C  C13  1  0.20232877  0.18569507  0.15244788  1
  H  H14  1  0.05276994  0.44708564  0.10254232  1
  C  C15  1  0.37552046  0.17044655  0.06196418  1
  C  C16  1  0.20473636  0.21287817  0.06812260  1
  H  H17  1  0.34839971  0.42465488  0.06949285  1
  C  C18  1  0.18206868  0.46159840  0.04347912  1
  C  C19  1  0.21478255  0.17516177  0.19827676  1
  C  C20  1  0.24502561  0.38120069  0.16182167  1
  O  O21  1  0.48449758  0.36958553  0.12560622  1
  H  H22  1  0.35663017  0.16022375  0.14230939  1
  O  O23  1  0.45333345  0.15479404  0.07996165  1
  C  C24  1  0.28698596  0.18636662  0.08724680  1
  H  H25  1  0.09108381  0.25395716  0.21622851  1
  O  O26  1  0.36969849  0.17679388  0.02495722  1
  C  C27  1  0.19729566  0.43329000  0.08681491  1
  C  C28  1  0.11424103  0.20484401  0.13351304  1
  C  C29  1  0.12208270  0.22608616  0.09210345  1
  C  C30  1  0.14571180  0.44125479  0.22832978  1
  O  O31  1  0.05948973  0.29031059  0.03184583  1
  H  H32  1  0.26158388  0.36466789  0.19275795  1
  C  C33  1  0.31580403  0.38840546  0.13287311  1
  C  C34  1  0.12154710  0.43221631  0.11411786  1
  O  O35  1  0.24479996  0.45861826  0.01834807  1
  H  H36  1  0.21118283  0.47018139  0.22559659  1
  C  C37  1  0.17534827  0.00720041  0.02840108  1
  H  H38  1  0.43526113  0.16464986  0.21350351  1
  O  O39  1  0.09559357  0.48092396  0.03477614  1
  H  H40  1  0.11859248  0.02873295  0.21352316  1
  H  H41  1  0.43118726  0.06083791  0.15187221  1
  C  C42  1  0.00329813  0.36620999  0.19834870  1
  C  C43  1  0.49789506  0.12261740  0.20684635  1
  C  C44  1  0.49572127  0.06906282  0.17294410  1
  H  H45  1  0.13658428  0.16303138  0.35268476  1
  C  C46  1  0.10358243  0.43689143  0.26515325  1
  C  C47  1  0.34436716  0.11176432  0.40227174  1
  H  H48  1  0.10881322  0.22546710  0.28996234  1
  H  H49  1  0.14123784  0.46674731  0.29147147  1
  C  C50  1  0.41038401  0.10561835  0.36967304  1
  C  C51  1  0.24560000  0.12921884  0.39700120  1
  H  H52  1  0.42648098  0.30328051  0.33449948  1
  O  O53  1  0.38063540  0.44708209  0.45131011  1
  H  H54  1  0.07854755  0.40978832  0.34167579  1
  O  O55  1  0.31505004  0.11400906  0.47131831  1
  C  C56  1  0.37565072  0.11774868  0.33067325  1
  C  C57  1  0.24654798  0.15583836  0.28107227  1
  C  C58  1  0.27633587  0.14465659  0.32447168  1
  H  H59  1  0.42710459  0.10115843  0.30772104  1
  C  C60  1  0.21177165  0.15023031  0.35831336  1
  C  C61  1  0.37666759  0.10236833  0.44472688  1
  H  H62  1  0.42609968  0.23535047  0.26618987  1
  C  C63  1  0.16292950  0.20195394  0.26860858  1
  H  H64  1  0.19926367  0.13077737  0.42299539  1
  C  C65  1  0.44823470  0.41394529  0.47057234  1
  O  O66  1  0.46344569  0.09592106  0.45571139  1
  H  H67  1  0.48743883  0.10314356  0.37669544  1
  H  H68  1  0.46300430  0.38190359  0.39404906  1
  H  H69  1  0.36117263  0.05810318  0.26592964  1
  C  C70  1  0.49299332  0.23701175  0.28417817  1
  C  C71  1  0.49409454  0.28014939  0.32159654  1
  C  C72  1  0.00767489  0.39908404  0.26987641  1
  C  C73  1  0.00380466  0.40549797  0.34668406  1
  C  C74  1  0.30949609  0.10879308  0.25380893  1
  C  C75  1  0.44304638  0.38411209  0.69249521  1
  C  C76  1  0.43398338  0.45785335  0.62448346  1
  Zn  Zn77  1  0.33607467  0.37931613  0.55045527  1
  H  H78  1  0.09913565  0.40522031  0.73369620  1
  O  O79  1  0.24378624  0.48427739  0.52967731  1
  H  H80  1  0.45933590  0.19553948  0.70337181  1
  H  H81  1  0.33034113  0.19900837  0.66371813  1
  C  C82  1  0.46441589  0.45422361  0.66736114  1
  C  C83  1  0.10412625  0.15186908  0.63929513  1
  C  C84  1  0.06034871  0.40062092  0.53623457  1
  C  C85  1  0.05913275  0.43753887  0.57908707  1
  C  C86  1  0.28017725  0.24314259  0.67757456  1
  O  O87  1  0.45130698  0.42281936  0.50955610  1
  O  O88  1  0.37897781  0.39797204  0.61091088  1
  H  H89  1  0.40125169  0.33181121  0.67637746  1
  O  O90  1  0.27548576  0.15219827  0.55979278  1
  C  C91  1  0.02183174  0.15683638  0.57676775  1
  C  C92  1  0.02449348  0.13590097  0.53244036  1
  O  O93  1  0.10128161  0.33049774  0.53209381  1
  C  C94  1  0.14854738  0.35743596  0.71873933  1
  C  C95  1  0.10237875  0.13030135  0.59815777  1
  O  O96  1  0.39409934  0.24432573  0.55100515  1
  C  C97  1  0.10127318  0.42046291  0.64888674  1
  C  C98  1  0.40755917  0.13703572  0.60392543  1
  H  H99  1  0.29203767  0.04395983  0.61572773  1
  H  H100  1  0.15088125  0.08715390  0.69827136  1
  H  H101  1  0.13837355  0.32282995  0.60191782  1
  C  C102  1  0.27657400  0.25331090  0.72072465  1
  C  C103  1  0.36167726  0.06582197  0.62489614  1
  C  C104  1  0.47719501  0.38401464  0.73249228  1
  H  H105  1  0.16242971  0.09383567  0.58380979  1
  C  C106  1  0.22582036  0.30236359  0.65483850  1
  C  C107  1  0.43178561  0.17239534  0.73341606  1
  C  C108  1  0.15821809  0.35766842  0.67570980  1
  H  H109  1  0.23207875  0.30236268  0.61972707  1
  C  C110  1  0.10628549  0.38970504  0.60899454  1
  C  C111  1  0.41049395  0.02106360  0.65656971  1
  C  C112  1  0.35558214  0.18033276  0.56923247  1
  C  C113  1  0.09840841  0.11453694  0.71952804  1
  O  O114  1  0.09441992  0.11563423  0.51144622  1
  C  C115  1  0.22003175  0.31656257  0.74173921  1
  C  C116  1  0.02022512  0.16523485  0.70231800  1
  Zn  Zn117  1  0.23930247  0.03459572  0.51882697  1
  H  H118  1  0.17116622  0.14382546  0.65546642  1
  C  C119  1  0.33745867  0.19322973  0.74662857  1
  C  C120  1  0.49900147  0.16335484  0.61390083  1
  C  C121  1  0.01490241  0.17682451  0.65681994  1
  H  H122  1  0.21505620  0.00225909  0.65271105  1
  O  O123  1  0.01364927  0.44127228  0.50873872  1
  H  H124  1  0.28750463  0.46115434  0.72701468  1
  Zn  Zn125  1  0.37421539  0.05461768  0.98624056  1
  C  C126  1  0.34728521  0.44564819  0.82578772  1
  C  C127  1  0.03284827  0.25654689  0.84891316  1
  H  H128  1  0.14632989  0.05205468  0.84507636  1
  H  H129  1  0.22854124  0.32868809  0.77333909  1
  C  C130  1  0.30633485  0.16295197  0.78575384  1
  C  C131  1  0.36127515  0.09722696  0.80493247  1
  C  C132  1  0.13275290  0.23761199  0.90803576  1
  H  H133  1  0.33770628  0.06743823  0.83301808  1
  C  C134  1  0.06922227  0.28789037  0.88549019  1
  Zn  Zn135  1  0.00372248  0.40490243  0.99659945  1
  C  C136  1  0.06630695  0.17543116  0.83381436  1
  C  C137  1  0.29876649  0.46145392  0.86268659  1
  C  C138  1  0.32795904  0.49270221  0.79168919  1
  C  C139  1  0.16104791  0.15434080  0.89159811  1
  H  H140  1  0.17279131  0.26403703  0.93363831  1
  C  C141  1  0.13076765  0.11885266  0.85490951  1
  O  O142  1  0.26717617  0.12800505  0.94620280  1
  C  C143  1  0.23304491  0.09979076  0.91363299  1
  C  C144  1  0.45268530  0.07972222  0.78981550  1
  C  C145  1  0.10607719  0.10692030  0.76140800  1
  O  O146  1  0.38072942  0.35093434  0.90014863  1
  C  C147  1  0.32850098  0.41300925  0.90234360  1
  C  C148  1  0.02702827  0.37811755  0.89754046  1
  H  H149  1  0.23988230  0.18383850  0.80015698  1
  O  O150  1  0.05460719  0.41175472  0.93070827  1
  H  H151  1  0.16216766  0.06675321  0.77558656  1
  C  C152  1  0.04561904  0.15826841  0.78845715  1
  H  H153  1  0.40842767  0.39858979  0.82539474  1
  O  O154  1  0.29121357  0.43646938  0.93625862  1
  H  H155  1  0.36797190  0.48415300  0.76188524  1
  O  O156  1  0.26352367  0.02635260  0.90037635  1
  O  O157  1  0.48593001  0.11873156  0.89210675  1
  O  O158  1  0.12286605  0.02419651  0.99857172  1
  O  O159  1  0.49282269  0.13682719  0.95856592  1
  H  H160  1  0.45958895  0.32895786  0.75148394  1
  C  C161  1  0.49243443  0.11607589  0.75390393  1
  C  C162  1  0.34521076  0.59491154  0.24689207  1
  C  C163  1  0.10755598  0.68424634  0.00604286  1
  H  H164  1  0.26654902  0.58617561  0.09847674  1
  C  C165  1  0.44890797  0.72994271  0.13397979  1
  C  C166  1  0.42766748  0.68982505  0.09691395  1
  C  C167  1  0.10402602  0.69412295  0.07710597  1
  C  C168  1  0.14596869  0.67649560  0.11821661  1
  O  O169  1  0.39277107  0.63539090  0.02491801  1
  H  H170  1  0.03306928  0.56425186  0.21635317  1
  H  H171  1  0.22817304  0.63740974  0.04442072  1
  C  C172  1  0.01604972  0.74303635  0.07289270  1
  C  C173  1  0.21284907  0.64672990  0.19771972  1
  C  C174  1  0.15389886  0.66917422  0.04220735  1
  C  C175  1  0.10381819  0.71843543  0.15266232  1
  C  C176  1  0.25077874  0.85016939  0.17901289  1
  H  H177  1  0.26347093  0.80132848  0.15263027  1
  H  H178  1  0.31468225  0.55272603  0.16758779  1
  H  H179  1  0.10753951  0.75272145  0.21691115  1
  C  C180  1  0.25838896  0.60401321  0.16347776  1
  C  C181  1  0.22833717  0.61798773  0.12315767  1
  C  C182  1  0.18321886  0.92332671  0.17852988  1
  H  H183  1  0.03864065  0.75949498  0.14463964  1
  C  C184  1  0.29452403  0.82721416  0.21505499  1
  H  H185  1  0.32943863  0.76318996  0.21770358  1
  C  C186  1  0.13498841  0.70669492  0.19236193  1
  C  C187  1  0.13587123  0.94864680  0.13903415  1
  C  C188  1  0.03804570  0.96734303  0.14293986  1
  H  H189  1  0.25938121  0.94513778  0.09894835  1
  C  C190  1  0.16350534  0.96898126  0.21583481  1
  H  H191  1  0.37987390  0.72902343  0.07574905  1
  C  C192  1  0.44719277  0.57952704  0.04344853  1
  C  C193  1  0.47049933  0.61172183  0.08484737  1
  H  H194  1  0.42312000  0.79856298  0.14030270  1
  C  C195  1  0.25061130  0.63028270  0.23899057  1
  H  H196  1  0.39381638  0.58045481  0.21867855  1
  C  C197  1  0.18245091  0.96743935  0.10262732  1
  H  H198  1  0.00504427  0.95255517  0.17394874  1
  C  C199  1  0.12898560  0.99741137  0.06889954  1
  O  O200  1  0.26312320  0.99802273  0.02506144  1
  O  O201  1  0.47067386  0.51028278  0.02626500  1
  H  H202  1  0.14685777  0.84155787  0.37032666  1
  H  H203  1  0.42575630  0.75904787  0.26866597  1
  C  C204  1  0.43965039  0.85250239  0.36000330  1
  O  O205  1  0.49030042  0.88734731  0.42993064  1
  Zn  Zn206  1  0.35162995  0.58819782  0.44418800  1
  C  C207  1  0.36736150  0.91677499  0.35816850  1
  C  C208  1  0.06278449  0.78493966  0.46434239  1
  C  C209  1  0.19127148  0.64994526  0.27340828  1
  C  C210  1  0.11033935  0.82941056  0.43455642  1
  O  O211  1  0.28015195  0.62096474  0.38889304  1
  H  H212  1  0.17889422  0.66523625  0.34034822  1
  H  H213  1  0.11580367  0.67156239  0.26773373  1
  C  C214  1  0.40868944  0.80000586  0.29381263  1
  C  C215  1  0.31027098  0.60026588  0.31837887  1
  O  O216  1  0.43250690  0.69553035  0.48127542  1
  C  C217  1  0.31400980  0.92455045  0.32218411  1
  H  H218  1  0.25500381  0.97027456  0.32074414  1
  C  C219  1  0.03945492  0.74086557  0.38287595  1
  C  C220  1  0.22080729  0.64162813  0.31253842  1
  O  O221  1  0.23477876  0.92961298  0.42269391  1
  C  C222  1  0.33966283  0.59648135  0.36109970  1
  C  C223  1  0.49991512  0.84158869  0.39865272  1
  C  C224  1  0.45851053  0.78758180  0.33024178  1
  O  O225  1  0.17020441  0.93710674  0.48265389  1
  C  C226  1  0.33666114  0.86563728  0.28916291  1
  H  H227  1  0.08300517  0.79826015  0.49509054  1
  C  C228  1  0.18117379  0.90306586  0.44768146  1
  C  C229  1  0.10137437  0.81093950  0.39374644  1
  C  C230  1  0.37235411  0.57236157  0.28611362  1
  O  O231  1  0.24616236  0.59490142  0.48690680  1
  O  O232  1  0.41581561  0.56689367  0.37430082  1
  H  H233  1  0.19073437  0.98375710  0.28044806  1
  H  H234  1  0.35406371  0.96348273  0.38380973  1
  C  C235  1  0.01070417  0.63237069  0.32813349  1
  C  C236  1  0.00752466  0.71190703  0.45188799  1
  H  H237  1  0.00401778  0.86652830  0.31978649  1
  C  C238  1  0.01235938  0.72547060  0.33950558  1
  H  H239  1  0.01902730  0.57792202  0.34978310  1
  H  H240  1  0.44572216  0.54579548  0.29293868  1
  C  C241  1  0.27845594  0.87675252  0.25142942  1
  C  C242  1  0.20586281  0.94441786  0.25305140  1
  O  O243  1  0.29854253  0.90936833  0.53842871  1
  H  H244  1  0.36766105  0.69630827  0.71453222  1
  O  O245  1  0.43659666  0.61498109  0.53476052  1
  C  C246  1  0.24925547  0.88261890  0.56867744  1
  O  O247  1  0.20771048  0.93768011  0.58876626  1
  C  C248  1  0.24779052  0.96773977  0.67866982  1
  C  C249  1  0.24881230  0.72141544  0.54891277  1
  C  C250  1  0.19174339  0.93260711  0.70882544  1
  C  C251  1  0.01192562  0.51696555  0.58557735  1
  C  C252  1  0.45729416  0.68512530  0.51755540  1
  H  H253  1  0.22112262  0.80935966  0.64398407  1
  C  C254  1  0.24521150  0.78280350  0.58032354  1
  C  C255  1  0.23941409  0.62983246  0.55571588  1
  C  C256  1  0.21404147  0.63827695  0.66921973  1
  C  C257  1  0.46011648  0.74875831  0.66762145  1
  C  C258  1  0.22260849  0.66615052  0.62624041  1
  H  H259  1  0.40941137  0.71816406  0.64486002  1
  C  C260  1  0.18418526  0.69572278  0.70111788  1
  C  C261  1  0.25778671  0.52453623  0.71849876  1
  C  C262  1  0.22706364  0.75826396  0.62009281  1
  C  C263  1  0.35098856  0.97047195  0.68590287  1
  C  C264  1  0.39067625  0.93109645  0.72078998  1
  C  C265  1  0.23169429  0.90072341  0.74653857  1
  C  C266  1  0.22604163  0.60231803  0.59430596  1
  C  C267  1  0.23774935  0.56255620  0.52256042  1
  H  H268  1  0.22417955  0.52919390  0.59793983  1
  H  H269  1  0.15069638  0.75750076  0.69467868  1
  H  H270  1  0.11083569  0.93439017  0.70365210  1
  H  H271  1  0.47180367  0.93330369  0.72478217  1
  H  H272  1  0.27139728  0.73813704  0.51777050  1
  C  C273  1  0.18454956  0.66552285  0.74081347  1
  C  C274  1  0.43860257  0.72882740  0.70749104  1
  H  H275  1  0.27293548  0.50669309  0.65401759  1
  C  C276  1  0.05589904  0.50325499  0.65535862  1
  H  H277  1  0.47803166  0.68153480  0.59628853  1
  C  C278  1  0.25126390  0.55066426  0.67868791  1
  H  H279  1  0.05161061  0.53010799  0.68574184  1
  C  C280  1  0.49857277  0.76178416  0.54332355  1
  O  O281  1  0.46102937  0.52256395  0.60464019  1
  C  C282  1  0.01325983  0.55130804  0.62519645  1
  O  O283  1  0.11476436  0.65733261  0.93545640  1
  C  C284  1  0.20795136  0.82333226  0.81302924  1
  C  C285  1  0.24361413  0.54462586  0.79135294  1
  H  H286  1  0.27544311  0.78939280  0.80628925  1
  H  H287  1  0.19603780  0.78243946  0.87595078  1
  O  O288  1  0.07895984  0.86734589  0.93301202  1
  C  C289  1  0.40145608  0.64162110  0.82866846  1
  C  C290  1  0.15993711  0.65975425  0.96562975  1
  C  C291  1  0.09009594  0.88447643  0.85780178  1
  O  O292  1  0.25136797  0.65685498  0.96646296  1
  C  C293  1  0.16866088  0.82440283  0.85086121  1
  C  C294  1  0.07451035  0.91612515  0.78623746  1
  C  C295  1  0.46593375  0.67725871  0.85740572  1
  H  H296  1  0.00117793  0.74821321  0.96935056  1
  C  C297  1  0.22197231  0.52067954  0.86232100  1
  H  H298  1  0.34771804  0.59370060  0.83619429  1
  C  C299  1  0.03878190  0.92313368  0.82558214  1
  O  O300  1  0.45566714  0.88425351  0.92388639  1
  C  C301  1  0.16811660  0.87939608  0.78150318  1
  Zn  Zn302  1  0.34784945  0.54482402  0.96986774  1
  H  H303  1  0.15699538  0.71048311  0.76513162  1
  H  H304  1  0.12565847  0.60402814  0.82985899  1
  C  C305  1  0.18458481  0.55675027  0.82682755  1
  C  C306  1  0.41149269  0.67372843  0.78941045  1
  O  O307  1  0.47231440  0.96037005  0.83689246  1
  H  H308  1  0.36246999  0.65103499  0.76591727  1
  C  C309  1  0.06034307  0.90870477  0.90035251  1
  O  O310  1  0.47525973  0.93738824  0.98503606  1
  O  O311  1  0.40088748  0.58297379  0.91216463  1
  H  H312  1  0.36028576  0.87147376  0.77850690  1
  H  H313  1  0.03194251  0.94198287  0.76113130  1
  C  C314  1  0.22593987  0.58093545  0.75012311  1
  H  H315  1  0.18753019  0.53728218  0.89118982  1
  Zn  Zn316  1  0.40506283  0.99879919  0.88828395  1
  O  O317  1  0.01082989  0.97507063  0.90612113  1
  C  C318  1  0.48371717  0.73498652  0.77950747  1
  C  C319  1  0.45831970  0.64093592  0.90108395  1
  C  C320  1  0.02686225  0.73406381  0.99945486  1
  C  C321  1  0.33313949  0.89309149  0.75039495  1
  C  C322  1  0.58741058  0.03277685  0.16412504  1
  Zn  Zn323  1  0.81859511  0.33534488  0.07091516  1
  O  O324  1  0.89513676  0.02086506  0.11484490  1
  O  O325  1  0.76963050  0.05614749  0.03479667  1
  Zn  Zn326  1  0.55135567  0.25645686  0.09600945  1
  H  H327  1  0.99804505  0.04122193  0.04861772  1
  O  O328  1  0.96439893  0.28040639  0.08513464  1
  H  H329  1  0.81905262  0.43787811  0.16324756  1
  H  H330  1  0.97503943  0.33603211  0.16953979  1
  C  C331  1  0.95640243  0.36444754  0.23683036  1
  O  O332  1  0.55120552  0.29493500  0.02613219  1
  O  O333  1  0.64745381  0.23846608  0.14318332  1
  C  C334  1  0.66841291  0.04921168  0.18841914  1
  C  C335  1  0.61625113  0.34862696  0.02629870  1
  H  H336  1  0.76328064  0.44352543  0.02226644  1
  C  C337  1  0.63297003  0.34273808  0.21668661  1
  C  C338  1  0.70660802  0.35242598  0.18743402  1
  H  H339  1  0.88625069  0.33241703  0.24293553  1
  O  O340  1  0.78780866  0.29410901  0.13242376  1
  C  C341  1  0.77120162  0.42423204  0.18793741  1
  H  H342  1  0.57824242  0.28762383  0.21636014  1
  C  C343  1  0.67270854  0.10037411  0.22446232  1
  C  C344  1  0.57938734  0.13927843  0.23295974  1
  O  O345  1  0.79494434  0.27285328  0.00955992  1
  C  C346  1  0.71586307  0.28888585  0.15366820  1
  O  O347  1  0.66611661  0.35415696  0.05925621  1
  C  C348  1  0.76188382  0.48600355  0.21834310  1
  H  H349  1  0.73691479  0.01746680  0.18252419  1
  O  O350  1  0.87026543  0.46576110  0.09549849  1
  C  C351  1  0.98201920  0.00392291  0.11180304  1
  H  H352  1  0.98979034  0.49949841  0.14738540  1
  C  C353  1  0.62441128  0.40439879  0.24767717  1
  H  H354  1  0.74070357  0.11978813  0.23874264  1
  C  C355  1  0.80778180  0.04047490  0.00119016  1
  C  C356  1  0.85867845  0.40468882  0.38039995  1
  C  C357  1  0.71284028  0.05801598  0.36718713  1
  C  C358  1  0.57986431  0.19514739  0.27026384  1
  C  C359  1  0.95922322  0.40003366  0.38400837  1
  C  C360  1  0.58145287  0.28480929  0.39309526  1
  H  H361  1  0.73315482  0.17780980  0.28508480  1
  H  H362  1  0.57206602  0.47573155  0.31951742  1
  H  H363  1  0.56491219  0.39631299  0.26843731  1
  C  C364  1  0.71914075  0.19780462  0.48255461  1
  O  O365  1  0.82280889  0.39390386  0.45421612  1
  C  C366  1  0.66325197  0.24270654  0.33155521  1
  C  C367  1  0.95229433  0.40326488  0.30924660  1
  C  C368  1  0.57393776  0.27485779  0.34757913  1
  H  H369  1  0.80826238  0.40807167  0.27979404  1
  C  C370  1  0.64559700  0.23744993  0.41593799  1
  C  C371  1  0.85215313  0.40548090  0.30813668  1
  O  O372  1  0.71302179  0.43350564  0.41185274  1
  Zn  Zn373  1  0.58055862  0.01520523  0.44090764  1
  C  C374  1  0.66680002  0.20121744  0.29416073  1
  C  C375  1  0.51906815  0.34614252  0.41206375  1
  H  H376  1  0.69660757  0.18874765  0.40189646  1
  H  H377  1  0.72502881  0.25630482  0.35004440  1
  C  C378  1  0.79331614  0.41279323  0.41774764  1
  H  H379  1  0.72048790  0.42287700  0.34643480  1
  O  O380  1  0.97826881  0.04024812  0.26173760  1
  C  C381  1  0.59044589  0.31674396  0.47868892  1
  C  C382  1  0.80416682  0.41481966  0.34491327  1
  O  O383  1  0.77600428  0.11047856  0.37661918  1
  H  H384  1  0.86932546  0.05914502  0.32259129  1
  C  C385  1  0.64974746  0.25742116  0.45751525  1
  O  O386  1  0.76766916  0.13802936  0.46644560  1
  H  H387  1  0.99845917  0.40791568  0.41297022  1
  O  O388  1  0.62974620  0.05547011  0.38301944  1
  C  C389  1  0.81841224  0.01032437  0.31317225  1
  C  C390  1  0.69156567  0.47663944  0.25041518  1
  C  C391  1  0.52420870  0.35563551  0.45427486  1
  O  O392  1  0.72653659  0.20835330  0.51879114  1
  H  H393  1  0.86412405  0.07830120  0.71512004  1
  H  H394  1  0.56613379  0.09549537  0.74361576  1
  H  H395  1  0.59551654  0.33191584  0.51102752  1
  H  H396  1  0.60256660  0.39805966  0.63032570  1
  H  H397  1  0.69552672  0.20359136  0.72826402  1
  C  C398  1  0.54628434  0.11464799  0.64411111  1
  O  O399  1  0.70382840  0.18310573  0.64539712  1
  C  C400  1  0.85952105  0.39053413  0.68239495  1
  C  C401  1  0.74803331  0.43896198  0.58135273  1
  H  H402  1  0.87724419  0.21541059  0.57524913  1
  C  C403  1  0.75573981  0.40888179  0.62303758  1
  O  O404  1  0.66776015  0.43350902  0.56462822  1
  H  H405  1  0.93070660  0.39110055  0.69509616  1
  C  C406  1  0.65455984  0.12459735  0.65880639  1
  O  O407  1  0.67577212  0.07297765  0.68699760  1
  O  O408  1  0.67197620  0.02870370  0.54727398  1
  C  C409  1  0.84728007  0.40751568  0.64025104  1
  C  C410  1  0.67440505  0.39045509  0.64559172  1
  C  C411  1  0.77966716  0.37173813  0.70738643  1
  C  C412  1  0.68804586  0.37762191  0.68708213  1
  H  H413  1  0.62968440  0.35478966  0.70568392  1
  H  H414  1  0.86593332  0.22485338  0.65164302  1
  H  H415  1  0.88963467  0.24013390  0.71444040  1
  C  C416  1  0.94968143  0.20250266  0.72919650  1
  Zn  Zn417  1  0.82108623  0.05276047  0.51842767  1
  O  O418  1  0.82259581  0.47123282  0.56455695  1
  C  C419  1  0.93514584  0.19139033  0.59371769  1
  O  O420  1  0.94384964  0.14466032  0.51399227  1
  H  H421  1  0.87884204  0.06798340  0.64299207  1
  C  C422  1  0.93116251  0.20270803  0.63410933  1
  H  H423  1  0.90923938  0.41891520  0.62070926  1
  H  H424  1  0.52961125  0.22063926  0.59839608  1
  H  H425  1  0.54854991  0.01077716  0.68899788  1
  C  C426  1  0.77252460  0.32811063  0.74896142  1
  C  C427  1  0.50824000  0.04392697  0.66376109  1
  C  C428  1  0.86388052  0.00774097  0.66022841  1
  C  C429  1  0.86383369  0.01201242  0.70201376  1
  C  C430  1  0.53417223  0.45822436  0.74623306  1
  Zn  Zn431  1  0.87554397  0.48188767  0.50193058  1
  C  C432  1  0.60355567  0.36655711  0.85104403  1
  C  C433  1  0.62733544  0.17642233  0.91545917  1
  C  C434  1  0.68126052  0.20781361  0.94673195  1
  C  C435  1  0.77153391  0.24490157  0.94040447  1
  C  C436  1  0.73040413  0.44536404  0.99434239  1
  C  C437  1  0.84609952  0.02038250  0.79400404  1
  C  C438  1  0.74586100  0.22326898  0.86883567  1
  H  H439  1  0.86235993  0.01990909  0.92274764  1
  C  C440  1  0.63803727  0.44429974  0.91863244  1
  C  C441  1  0.72701677  0.24129011  0.75398745  1
  C  C442  1  0.72764804  0.20279727  0.79377664  1
  C  C443  1  0.80747373  0.25204507  0.90089598  1
  H  H444  1  0.84565537  0.43978715  0.77288262  1
  H  H445  1  0.84020073  0.37892418  0.84879722  1
  H  H446  1  0.69262576  0.14006907  0.80087676  1
  C  C447  1  0.66126737  0.17384647  0.87569041  1
  H  H448  1  0.61719605  0.14449705  0.85208755  1
  C  C449  1  0.81488572  0.33954551  0.82037773  1
  C  C450  1  0.81053118  0.37638074  0.78200951  1
  C  C451  1  0.77025743  0.25439609  0.82603934  1
  C  C452  1  0.96257255  0.19930281  0.77141671  1
  H  H453  1  0.62116048  0.30428100  0.86750010  1
  H  H454  1  0.87233589  0.29208300  0.89638302  1
  H  H455  1  0.84870039  0.08213214  0.85347167  1
  C  C456  1  0.82700552  0.02299545  0.83494283  1
  H  H457  1  0.65290329  0.20077653  0.97879791  1
  C  C458  1  0.64578177  0.39779422  0.98766983  1
  C  C459  1  0.56581420  0.45431773  0.78929254  1
  C  C460  1  0.60016631  0.39493285  0.95111202  1
  C  C461  1  0.52745550  0.14513705  0.92424782  1
  C  C462  1  0.58617598  0.37168713  0.80925017  1
  O  O463  1  0.91785119  0.29870570  0.96899004  1
  C  C464  1  0.83244353  0.27662096  0.97565882  1
  C  C465  1  0.60576560  0.44637372  0.87431344  1
  H  H466  1  0.92074267  0.23565471  0.79468048  1
  H  H467  1  0.88095298  0.07640119  0.77799021  1
  O  O468  1  0.89397910  0.05740368  0.99288543  1
  H  H469  1  0.53580859  0.35598518  0.94631544  1
  C  C470  1  0.72599961  0.49124898  0.92516541  1
  O  O471  1  0.96725968  0.41396554  0.87698556  1
  C  C472  1  0.76471745  0.49872432  0.96289830  1
  C  C473  1  0.51388606  0.01070190  0.80893776  1
  H  H474  1  0.98165542  0.29732056  0.82958665  1
  H  H475  1  0.60365668  0.31130159  0.79149361  1
  C  C476  1  0.74968020  0.00398584  0.96740144  1
  O  O477  1  0.59547975  0.00256959  0.79931887  1
  H  H478  1  0.62395434  0.98115464  0.00621685  1
  O  O479  1  0.67977276  0.93654309  0.12456292  1
  H  H480  1  0.81828657  0.53949855  0.21893491  1
  H  H481  1  0.59101812  0.61529539  0.23182660  1
  C  C482  1  0.54824311  0.73300703  0.19782138  1
  C  C483  1  0.51506093  0.68664321  0.16086633  1
  C  C484  1  0.58875671  0.68660464  0.23266129  1
  H  H485  1  0.93032284  0.81726232  0.24890087  1
  C  C486  1  0.53096898  0.56487781  0.11251948  1
  C  C487  1  0.91858059  0.65732019  0.21769478  1
  C  C488  1  0.83383302  0.69012771  0.19830690  1
  O  O489  1  0.85181628  0.84027984  0.06252815  1
  C  C490  1  0.89726685  0.82062342  0.03114779  1
  H  H491  1  0.72900064  0.66271863  0.14972426  1
  Zn  Zn492  1  0.77743723  0.95690191  0.08392976  1
  C  C493  1  0.85644670  0.57964901  0.14829334  1
  C  C494  1  0.79852724  0.64885119  0.16440291  1
  H  H495  1  0.78595208  0.73707263  0.21445898  1
  H  H496  1  0.77487100  0.87946267  0.23238320  1
  H  H497  1  0.96874184  0.75283495  0.09790721  1
  H  H498  1  0.60457199  0.56306471  0.16789788  1
  O  O499  1  0.52835745  0.95146810  0.10895243  1
  H  H500  1  0.57682318  0.95461389  0.22967735  1
  C  C501  1  0.82323989  0.53184063  0.11021815  1
  O  O502  1  0.74649569  0.55384838  0.09563140  1
  C  C503  1  0.94819981  0.55054783  0.16202220  1
  C  C504  1  0.57017144  0.88352597  0.22908022  1
  C  C505  1  0.59635644  0.97184642  0.12898385  1
  C  C506  1  0.55115666  0.59876243  0.14971407  1
  C  C507  1  0.98255483  0.76329675  0.03542972  1
  O  O508  1  0.91808685  0.95203915  0.21728769  1
  H  H509  1  0.56020859  0.50168088  0.10230731  1
  C  C510  1  0.97300926  0.58665643  0.19964386  1
  H  H511  1  0.51599123  0.86100726  0.16948176  1
  C  C512  1  0.53692908  0.82883017  0.19736617  1
  C  C513  1  0.77461374  0.66086634  0.32381420  1
  H  H514  1  0.80823136  0.80975762  0.37449960  1
  H  H515  1  0.58696099  0.93695385  0.33461567  1
  H  H516  1  0.64239786  0.70939378  0.29417732  1
  C  C517  1  0.95388101  0.77098735  0.27384666  1
  C  C518  1  0.64629852  0.57690372  0.35512349  1
  O  O519  1  0.56130137  0.78418796  0.39447144  1
  C  C520  1  0.70256001  0.65053329  0.43424496  1
  H  H521  1  0.97057189  0.54047976  0.28271247  1
  H  H522  1  0.66735748  0.58175213  0.43439538  1
  O  O523  1  0.89276859  0.92329116  0.41617795  1
  C  C524  1  0.76427817  0.90597051  0.26277569  1
  C  C525  1  0.71980085  0.64560854  0.35842973  1
  C  C526  1  0.94748575  0.68064271  0.26058084  1
  C  C527  1  0.61722775  0.73888477  0.26491965  1
  H  H528  1  0.60393373  0.56193658  0.38301591  1
  C  C529  1  0.71807332  0.69016276  0.47139783  1
  C  C530  1  0.67672828  0.89436107  0.28538147  1
  C  C531  1  0.99067331  0.68879338  0.41120716  1
  C  C532  1  0.95305100  0.66661621  0.48454658  1
  H  H533  1  0.93476542  0.64020018  0.40094699  1
  H  H534  1  0.83865810  0.70906810  0.32250025  1
  O  O535  1  0.89600102  0.60567168  0.47482842  1
  C  C536  1  0.76167817  0.61159564  0.28789104  1
  C  C537  1  0.83307221  0.96171492  0.27813997  1
  C  C538  1  0.92121142  0.98496906  0.25037232  1
  C  C539  1  0.78378344  0.77209251  0.40067903  1
  C  C540  1  0.76122018  0.77307610  0.47443579  1
  C  C541  1  0.85434706  0.89324447  0.44560282  1
  C  C542  1  0.73520364  0.68979046  0.39806570  1
  O  O543  1  0.85529011  0.93591274  0.47812609  1
  C  C544  1  0.79657147  0.80799316  0.43802409  1
  H  H545  1  0.79902737  0.62779924  0.25948193  1
  C  C546  1  0.65773179  0.93651860  0.32196702  1
  C  C547  1  0.69017121  0.54040327  0.28475975  1
  C  C548  1  0.62890439  0.52746091  0.31970428  1
  O  O549  1  0.65353165  0.96023298  0.49053327  1
  C  C550  1  0.97876149  0.61200151  0.28937530  1
  C  C551  1  0.61026364  0.83403761  0.26136362  1
  C  C552  1  0.99558963  0.79459227  0.31062529  1
  H  H553  1  0.51437446  0.73780124  0.33617080  1
  H  H554  1  0.53181061  0.83989458  0.48968885  1
  C  C555  1  0.73018297  0.99505957  0.33380062  1
  H  H556  1  0.63103084  0.93337683  0.60775783  1
  C  C557  1  0.83971720  0.93206330  0.72413602  1
  C  C558  1  0.63430230  0.97120566  0.52674336  1
  C  C559  1  0.53243538  0.83538431  0.52325068  1
  C  C560  1  0.54874550  0.81121057  0.60796762  1
  O  O561  1  0.82358838  0.85372767  0.57624284  1
  H  H562  1  0.97534068  0.54744675  0.55902205  1
  C  C563  1  0.58632417  0.81399787  0.72502192  1
  C  C564  1  0.51925239  0.52892050  0.68118167  1
  C  C565  1  0.58295158  0.89491979  0.54731325  1
  H  H566  1  0.84172775  0.78347429  0.64731204  1
  C  C567  1  0.83748254  0.85055936  0.66020680  1
  H  H568  1  0.58613800  0.59501840  0.73343288  1
  H  H569  1  0.53784486  0.58756389  0.66270527  1
  C  C570  1  0.85265054  0.92520758  0.63786958  1
  C  C571  1  0.50833140  0.76025302  0.73620124  1
  Zn  Zn572  1  0.54131743  0.52085805  0.54748441  1
  H  H573  1  0.65983744  0.88789005  0.67268455  1
  C  C574  1  0.54160307  0.79877673  0.65451769  1
  C  C575  1  0.59259050  0.88460295  0.58982016  1
  C  C576  1  0.82884426  0.85277488  0.70261617  1
  O  O577  1  0.71489149  0.66945939  0.54262581  1
  C  C578  1  0.60353305  0.84151543  0.68399303  1
  Zn  Zn579  1  0.86251485  0.71921583  0.56308121  1
  C  C580  1  0.68831440  0.64457190  0.50893977  1
  O  O581  1  0.89053778  0.66759279  0.62117627  1
  O  O582  1  0.96945133  0.68608609  0.52135975  1
  C  C583  1  0.84768970  0.92501727  0.59293089  1
  H  H584  1  0.81427698  0.79005627  0.71934765  1
  C  C585  1  0.96184042  0.63459340  0.63935063  1
  O  O586  1  0.86904463  0.99453806  0.57580788  1
  H  H587  1  0.77313480  0.80480843  0.50336561  1
  H  H588  1  0.63707378  0.83229221  0.74782144  1
  O  O589  1  0.63575801  0.57674614  0.50304599  1
  C  C590  1  0.50704373  0.74245300  0.58376377  1
  O  O591  1  0.99041878  0.67430072  0.66905056  1
  C  C592  1  0.55000408  0.53667160  0.72108275  1
  C  C593  1  0.79001801  0.58353568  0.74381072  1
  O  O594  1  0.73775064  0.63381860  0.74824724  1
  C  C595  1  0.50540886  0.91355992  0.95135435  1
  H  H596  1  0.60257387  0.58989942  0.87518846  1
  C  C597  1  0.73836737  0.95655116  0.89747962  1
  C  C598  1  0.65721326  0.97365843  0.97560487  1
  C  C599  1  0.59562639  0.53100039  0.85474332  1
  C  C600  1  0.82426822  0.94237538  0.76891915  1
  O  O601  1  0.86901218  0.62353793  0.94559358  1
  C  C602  1  0.79049229  0.99647180  0.92959264  1
  C  C603  1  0.77739573  0.94672382  0.85525534  1
  C  C604  1  0.75963172  0.86947504  0.83101528  1
  Zn  Zn605  1  0.99446131  0.95384619  0.97905601  1
  C  C606  1  0.53060804  0.74501479  0.85060050  1
  H  H607  1  0.97064289  0.95839356  0.83352940  1
  C  C608  1  0.78689544  0.86627586  0.79013129  1
  C  C609  1  0.57359139  0.53710446  0.81349863  1
  C  C610  1  0.86170025  0.55973759  0.96711792  1
  H  H611  1  0.77050626  0.80568009  0.77311503  1
  H  H612  1  0.60345074  0.90291041  0.87958595  1
  H  H613  1  0.72424566  0.81313937  0.84639997  1
  C  C614  1  0.54188554  0.76989876  0.80977587  1
  H  H615  1  0.59157570  0.82291814  0.80284718  1
  C  C616  1  0.64538183  0.92526156  0.90486817  1
  C  C617  1  0.60666197  0.94146978  0.94287272  1
  H  H618  1  0.57562213  0.77020407  0.87588881  1
  H  H619  1  0.55528233  0.59924364  0.79975785  1
  O  O620  1  0.92243108  0.53393590  0.99232568  1
  O  O621  1  0.51892597  0.67339944  0.92328484  1
  H  H622  1  0.75853909  0.52983452  0.90074359  1
  O  O623  1  0.89102788  0.85015412  0.99640611  1
