# generated using pymatgen
data_Zn4H24C48O13
_symmetry_space_group_name_H-M   'P 1'
_cell_length_a   18.59058307
_cell_length_b   7.78024854
_cell_length_c   31.06501797
_cell_angle_alpha   90.00000000
_cell_angle_beta   90.00000000
_cell_angle_gamma   90.00000000
_symmetry_Int_Tables_number   1
_chemical_formula_structural   Zn4H24C48O13
_chemical_formula_sum   'Zn16 H96 C192 O52'
_cell_volume   4493.22421568
_cell_formula_units_Z   4
loop_
 _symmetry_equiv_pos_site_id
 _symmetry_equiv_pos_as_xyz
  1  'x, y, z'
loop_
 _atom_site_type_symbol
 _atom_site_label
 _atom_site_symmetry_multiplicity
 _atom_site_fract_x
 _atom_site_fract_y
 _atom_site_fract_z
 _atom_site_occupancy
  H  H0  1  0.47855772  0.34870262  0.20688076  1
  O  O1  1  0.06736492  0.16733928  0.07820620  1
  Zn  Zn2  1  0.04314691  0.43484012  0.06742740  1
  H  H3  1  0.20881231  0.14526814  0.08702740  1
  O  O4  1  0.03258873  0.03969283  0.02097529  1
  H  H5  1  0.33054269  0.06503301  0.05938654  1
  H  H6  1  0.33665476  0.30767242  0.09499221  1
  C  C7  1  0.28440608  0.42563162  0.03989924  1
  C  C8  1  0.15420881  0.01171317  0.03331047  1
  C  C9  1  0.21415826  0.05915014  0.05795672  1
  C  C10  1  0.34406199  0.35531216  0.06165396  1
  C  C11  1  0.08052957  0.07556687  0.04606797  1
  H  H12  1  0.46049629  0.30468429  0.05782255  1
  C  C13  1  0.41186660  0.35614480  0.04271127  1
  C  C14  1  0.21438398  0.44772674  0.06384227  1
  O  O15  1  0.03297381  0.43561924  0.22284348  1
  O  O16  1  0.21813856  0.43299163  0.10483691  1
  H  H17  1  0.41790847  0.05887142  0.09473713  1
  O  O18  1  0.48862372  0.03521542  0.24576378  1
  C  C19  1  0.47030032  0.02231789  0.15672827  1
  C  C20  1  0.46836734  0.02525790  0.11179508  1
  H  H21  1  0.42716204  0.07923228  0.17517196  1
  C  C22  1  0.09814054  0.42818426  0.22896198  1
  O  O23  1  0.14278783  0.42271113  0.19787107  1
  O  O24  1  0.15777556  0.47696497  0.04488390  1
  C  C25  1  0.41600423  0.42354194  0.00000038  1
  C  C26  1  0.28391453  0.01928534  0.04212709  1
  C  C27  1  0.21293885  0.48957634  0.39867079  1
  C  C28  1  0.16256661  0.07775521  0.40436944  1
  H  H29  1  0.36821773  0.31925626  0.43576181  1
  O  O30  1  0.46485623  0.43805932  0.28581883  1
  C  C31  1  0.35064823  0.37069399  0.46898769  1
  Zn  Zn32  1  0.48265154  0.16094119  0.30750831  1
  C  C33  1  0.23906683  0.48353219  0.43426382  1
  C  C34  1  0.18078943  0.48482417  0.35594777  1
  H  H35  1  0.23527913  0.49468126  0.25027328  1
  C  C36  1  0.28145234  0.45314168  0.47428158  1
  C  C37  1  0.20379478  0.47254191  0.27903294  1
  C  C38  1  0.08536049  0.11794962  0.40698134  1
  C  C39  1  0.08011685  0.41348735  0.30818929  1
  C  C40  1  0.10535085  0.44013111  0.34879803  1
  H  H41  1  0.06732324  0.42303107  0.37527392  1
  C  C42  1  0.21020416  0.10738937  0.44062382  1
  H  H43  1  0.19109312  0.13641542  0.47353239  1
  O  O44  1  0.41474143  0.00574311  0.35027432  1
  C  C45  1  0.28418832  0.07631931  0.43485711  1
  C  C46  1  0.30796576  0.03438875  0.39370413  1
  C  C47  1  0.02299854  0.15742906  0.40107662  1
  C  C48  1  0.19205560  0.02480194  0.36167789  1
  H  H49  1  0.15278987  0.01449609  0.33552783  1
  O  O50  1  0.43260184  0.04162701  0.41788552  1
  C  C51  1  0.13014612  0.43614939  0.27360756  1
  H  H52  1  0.31958834  0.09602556  0.46212977  1
  C  C53  1  0.38763603  0.02878283  0.38772864  1
  H  H54  1  0.02118650  0.38261363  0.30292510  1
  C  C55  1  0.10088978  0.24447741  0.60304870  1
  H  H56  1  0.14590511  0.32108318  0.59285224  1
  C  C57  1  0.18604398  0.16445763  0.66262870  1
  O  O58  1  0.44213244  0.22819959  0.58725202  1
  C  C59  1  0.24631808  0.48379201  0.51511397  1
  C  C60  1  0.11603834  0.15006766  0.64137737  1
  O  O61  1  0.23422741  0.26757162  0.64998880  1
  O  O62  1  0.37520006  0.40301766  0.62394408  1
  C  C63  1  0.29118385  0.46463307  0.55153512  1
  H  H64  1  0.44060391  0.27587385  0.50670174  1
  C  C65  1  0.35859477  0.38507153  0.54584767  1
  C  C66  1  0.03707404  0.23572058  0.58368456  1
  C  C67  1  0.39536662  0.34531048  0.58892583  1
  H  H68  1  0.02287419  0.32278553  0.71722825  1
  Zn  Zn69  1  0.34522740  0.23586140  0.67172156  1
  O  O70  1  0.20025802  0.06476169  0.69352646  1
  H  H71  1  0.02089147  0.31252885  0.55611258  1
  C  C72  1  0.39070917  0.33974675  0.50656334  1
  C  C73  1  0.06744889  0.03087842  0.65890977  1
  C  C74  1  0.37991885  0.19704562  0.89047803  1
  H  H75  1  0.16510244  0.28561003  0.96301119  1
  C  C76  1  0.26082690  0.22555607  0.92771456  1
  H  H77  1  0.27825487  0.13695820  0.95477142  1
  Zn  Zn78  1  0.01978594  0.48101424  0.82285985  1
  O  O79  1  0.03094510  0.23178138  0.79285765  1
  C  C80  1  0.44146027  0.15057029  0.88639398  1
  C  C81  1  0.27801839  0.36845129  0.85979189  1
  C  C82  1  0.19493329  0.30591619  0.93204918  1
  C  C83  1  0.30537457  0.25992118  0.89253077  1
  O  O84  1  0.06232512  0.46014722  0.93991002  1
  C  C85  1  0.16988050  0.41896596  0.90112370  1
  C  C86  1  0.21274370  0.45347517  0.86378563  1
  H  H87  1  0.30692961  0.39389330  0.83038398  1
  C  C88  1  0.28714694  0.49206767  0.99712314  1
  H  H89  1  0.49569210  0.41762902  0.86338913  1
  C  C90  1  0.35233919  0.47874346  0.97448071  1
  C  C91  1  0.48134381  0.42884371  0.97397010  1
  O  O92  1  0.28800209  0.77718630  0.22518031  1
  C  C93  1  0.38972231  0.65259392  0.09002448  1
  C  C94  1  0.40755657  0.67675053  0.18166305  1
  H  H95  1  0.41126600  0.69192239  0.21750987  1
  H  H96  1  0.27801283  0.73213095  0.10215247  1
  C  C97  1  0.46691744  0.63102433  0.15696840  1
  C  C98  1  0.33146599  0.70319329  0.11543086  1
  O  O99  1  0.21389107  0.78106907  0.17137089  1
  C  C100  1  0.34230620  0.71742671  0.16056523  1
  C  C101  1  0.27701220  0.76566840  0.18793020  1
  H  H102  1  0.38563924  0.63872806  0.05561813  1
  C  C103  1  0.45602392  0.61120926  0.11175589  1
  Zn  Zn104  1  0.15701415  0.59627166  0.14558315  1
  O  O105  1  0.06503151  0.57081592  0.11868425  1
  C  C106  1  0.28715592  0.93290209  0.00204325  1
  C  C107  1  0.09182658  0.77076618  0.49032749  1
  C  C108  1  0.01669944  0.73248974  0.41746041  1
  C  C109  1  0.16399868  0.79012408  0.47754408  1
  H  H110  1  0.17813080  0.78239439  0.44196866  1
  H  H111  1  0.09736083  0.77676632  0.34871939  1
  C  C112  1  0.04034681  0.76956211  0.34186407  1
  H  H113  1  0.05830229  0.79965109  0.27518243  1
  C  C114  1  0.04464825  0.73722104  0.45234992  1
  C  C115  1  0.01612006  0.77747647  0.30039909  1
  C  C116  1  0.26383365  0.99674344  0.35664544  1
  C  C117  1  0.22997426  0.50532557  0.32071166  1
  H  H118  1  0.28508552  0.54907336  0.32674070  1
  H  H119  1  0.29124272  0.95443488  0.32628027  1
  H  H120  1  0.27069734  0.80149443  0.49994374  1
  C  C121  1  0.01831891  0.61746636  0.66639857  1
  C  C122  1  0.12306640  0.80056521  0.56601621  1
  O  O123  1  0.31007135  0.87925227  0.57541691  1
  C  C124  1  0.21554030  0.80471404  0.50870993  1
  H  H125  1  0.11377202  0.81288557  0.60118699  1
  Zn  Zn126  1  0.28628446  0.85468034  0.68246161  1
  O  O127  1  0.23284841  0.78353570  0.62384617  1
  H  H128  1  0.00925477  0.78046906  0.53855058  1
  Zn  Zn129  1  0.45173009  0.85124247  0.69986847  1
  H  H130  1  0.07833826  0.96421678  0.68990791  1
  H  H131  1  0.06988480  0.57277042  0.67646781  1
  Zn  Zn132  1  0.40483555  0.95778808  0.61183374  1
  C  C133  1  0.19356801  0.81307459  0.55149531  1
  C  C134  1  0.25076756  0.82345500  0.58649989  1
  C  C135  1  0.06962114  0.78384025  0.53371443  1
  H  H136  1  0.19047526  0.53664931  0.51851085  1
  O  O137  1  0.38159779  0.98941248  0.67255124  1
  H  H138  1  0.27653572  0.50290395  0.58463678  1
  H  H139  1  0.04560332  0.57528295  0.59894753  1
  C  C140  1  0.00354926  0.61543576  0.62305434  1
  O  O141  1  0.29806118  0.70760090  0.74129618  1
  O  O142  1  0.41491984  0.68072711  0.74221350  1
  C  C143  1  0.29676845  0.81238006  0.82995697  1
  H  H144  1  0.23975570  0.52873552  0.98052355  1
  C  C145  1  0.35618682  0.91515445  0.97935524  1
  C  C146  1  0.38183091  0.87290616  0.94133282  1
  H  H147  1  0.19265575  0.53176340  0.83636207  1
  H  H148  1  0.25915480  0.94022641  0.88869184  1
  C  C149  1  0.42275830  0.69228601  0.83017673  1
  C  C150  1  0.35846458  0.74253920  0.80972657  1
  C  C151  1  0.36790687  0.81505175  0.89646878  1
  H  H152  1  0.46891024  0.68772975  0.89234717  1
  H  H153  1  0.46549736  0.61820645  0.81396275  1
  H  H154  1  0.24603196  0.85209272  0.81097006  1
  C  C155  1  0.30133898  0.85802363  0.87280217  1
  C  C156  1  0.35526764  0.70517715  0.76230484  1
  H  H157  1  0.10722787  0.86662913  0.97911051  1
  C  C158  1  0.42370634  0.73348264  0.87336669  1
  H  H159  1  0.23098532  0.79297778  0.94975844  1
  O  O160  1  0.07418906  0.59634494  0.87884259  1
  H  H161  1  0.36099158  0.51373242  0.94159361  1
  C  C162  1  0.22302612  0.87436402  0.97751669  1
  Zn  Zn163  1  0.47037761  0.90310487  0.98119838  1
  C  C164  1  0.15731189  0.90722584  0.99528311  1
  H  H165  1  0.46762261  0.95097252  0.81579334  1
  O  O166  1  0.02458715  0.59651842  0.76228896  1
  C  C167  1  0.09914017  0.50225951  0.90769916  1
  H  H168  1  0.66452279  0.15045051  0.04128416  1
  C  C169  1  0.76839064  0.15686181  0.07645849  1
  H  H170  1  0.92793347  0.08434919  0.02322690  1
  H  H171  1  0.87628023  0.07919169  0.09868666  1
  C  C172  1  0.70576257  0.29560991  0.14516401  1
  C  C173  1  0.72278079  0.15140105  0.03868108  1
  C  C174  1  0.53790940  0.36879999  0.20940230  1
  C  C175  1  0.73467008  0.22913954  0.11383733  1
  H  H176  1  0.56198907  0.27769109  0.14563655  1
  C  C177  1  0.84475266  0.12100289  0.07016078  1
  C  C178  1  0.66026974  0.36301562  0.17924751  1
  C  C179  1  0.87117159  0.12039307  0.02891134  1
  C  C180  1  0.58484054  0.32258135  0.17591329  1
  H  H181  1  0.82289019  0.47177785  0.02141316  1
  C  C182  1  0.68980317  0.49133334  0.20952061  1
  H  H183  1  0.69130043  0.44389475  0.01719280  1
  C  C184  1  0.56884168  0.47596608  0.24125975  1
  C  C185  1  0.71585316  0.49616462  0.04647724  1
  H  H186  1  0.97254834  0.00248264  0.33578691  1
  C  C187  1  0.90990225  0.33851613  0.39960129  1
  C  C188  1  0.95161159  0.20275385  0.38339391  1
  C  C189  1  0.87325225  0.13269226  0.32422656  1
  Zn  Zn190  1  0.61407895  0.40691770  0.35657556  1
  O  O191  1  0.55779351  0.27413511  0.44299348  1
  Zn  Zn192  1  0.64292044  0.05350244  0.30633193  1
  Zn  Zn193  1  0.53891383  0.05452673  0.39418880  1
  H  H194  1  0.85600431  0.05010343  0.29686183  1
  C  C195  1  0.82857965  0.26373993  0.34018759  1
  H  H196  1  0.92289560  0.40782052  0.42936453  1
  C  C197  1  0.62352184  0.31710454  0.44853142  1
  C  C198  1  0.65545340  0.33521519  0.49160701  1
  C  C199  1  0.75970116  0.31512272  0.31835053  1
  C  C200  1  0.84560823  0.36738978  0.37637171  1
  O  O201  1  0.66248544  0.33706363  0.41491313  1
  O  O202  1  0.56784216  0.18413606  0.34280574  1
  O  O203  1  0.73121556  0.22107177  0.28997249  1
  C  C204  1  0.93447230  0.09837884  0.34626526  1
  H  H205  1  0.75953758  0.35794585  0.46095804  1
  O  O206  1  0.72848241  0.45068030  0.32930431  1
  H  H207  1  0.79991883  0.44609790  0.39006128  1
  C  C208  1  0.73133413  0.36018293  0.49152721  1
  H  H209  1  0.82493611  0.38316509  0.53161621  1
  H  H210  1  0.75435442  0.16581439  0.70853838  1
  C  C211  1  0.81115858  0.20011580  0.71399889  1
  C  C212  1  0.96494025  0.29103338  0.71536433  1
  C  C213  1  0.84946632  0.28104359  0.67809998  1
  H  H214  1  0.55845120  0.28521995  0.53156393  1
  C  C215  1  0.76507359  0.35222368  0.61078085  1
  C  C216  1  0.61483180  0.31656727  0.53045918  1
  C  C217  1  0.92424253  0.32614922  0.67695175  1
  C  C218  1  0.64935394  0.32095489  0.56953413  1
  C  C219  1  0.72442293  0.35853475  0.57027004  1
  H  H220  1  0.62224154  0.26989756  0.59970716  1
  C  C221  1  0.80206739  0.32762767  0.64246745  1
  C  C222  1  0.76658676  0.36561093  0.53062249  1
  H  H223  1  0.94622592  0.39319902  0.64783916  1
  C  C224  1  0.85393349  0.15338235  0.74718902  1
  C  C225  1  0.92750503  0.20388434  0.74712350  1
  C  C226  1  0.91308586  0.05641543  0.58774334  1
  H  H227  1  0.73318249  0.00738165  0.52875522  1
  C  C228  1  0.84983021  0.02417857  0.58349694  1
  C  C229  1  0.98786897  0.10293284  0.59939855  1
  C  C230  1  0.99721819  0.01231336  0.64032049  1
  O  O231  1  0.70381329  0.45839410  0.76680246  1
  Zn  Zn232  1  0.85477197  0.23672933  0.85571603  1
  H  H233  1  0.69133650  0.13293972  0.90022107  1
  C  C234  1  0.64159550  0.09895579  0.88213540  1
  C  C235  1  0.57444242  0.13926263  0.90028926  1
  C  C236  1  0.82648402  0.15163790  0.99208545  1
  C  C237  1  0.60546829  0.46065280  0.83580800  1
  C  C238  1  0.97073679  0.16236441  0.78920471  1
  C  C239  1  0.51445810  0.09211814  0.87522411  1
  C  C240  1  0.85711272  0.17894207  0.94884136  1
  O  O241  1  0.92302324  0.18979749  0.94601129  1
  C  C242  1  0.72738795  0.46237071  0.80240535  1
  C  C243  1  0.64532038  0.02754449  0.84061920  1
  O  O244  1  0.79725504  0.44663692  0.80766150  1
  O  O245  1  0.81468118  0.21073098  0.91800173  1
  H  H246  1  0.57001894  0.21033681  0.93215158  1
  O  O247  1  0.94181253  0.09240068  0.81947495  1
  C  C248  1  0.55277280  0.44546962  0.86844978  1
  C  C249  1  0.74967858  0.16992569  0.99735170  1
  H  H250  1  0.71463929  0.17230786  0.97024399  1
  O  O251  1  0.93046814  0.43073038  0.86004444  1
  C  C252  1  0.67959787  0.46968892  0.84225593  1
  Zn  Zn253  1  0.95348896  0.45267876  0.92551861  1
  H  H254  1  0.82541513  0.09049304  0.77439599  1
  H  H255  1  0.58592043  0.44756871  0.80229432  1
  C  C256  1  0.58015458  0.47704725  0.91081963  1
  C  C257  1  0.52565357  0.44992470  0.94545478  1
  O  O258  1  0.77091415  0.04410340  0.83172576  1
  C  C259  1  0.71145212  0.00008262  0.81334959  1
  H  H260  1  0.67644868  0.46118260  0.95294066  1
  C  C261  1  0.65801853  0.47117229  0.91866746  1
  H  H262  1  0.76385728  0.48361404  0.89247438  1
  C  C263  1  0.70504715  0.47417313  0.88522914  1
  C  C264  1  0.78855581  0.51691491  0.04719193  1
  Zn  Zn265  1  0.99161075  0.59507945  0.16429519  1
  C  C266  1  0.77887843  0.66015726  0.11701637  1
  C  C267  1  0.64080470  0.54024137  0.24096885  1
  H  H268  1  0.67310747  0.68930163  0.14400300  1
  H  H269  1  0.65099459  0.91690755  0.17164504  1
  C  C270  1  0.70508663  0.64277564  0.11556620  1
  O  O271  1  0.92550581  0.71388409  0.11501790  1
  O  O272  1  0.93703494  0.55096818  0.05761847  1
  C  C273  1  0.67106253  0.56060347  0.08074943  1
  C  C274  1  0.59105122  0.55251188  0.08173233  1
  O  O275  1  0.95990800  0.76597766  0.21201461  1
  H  H276  1  0.70822424  0.82259545  0.05074025  1
  H  H277  1  0.80371475  0.72362449  0.14502283  1
  C  C278  1  0.90032194  0.62841586  0.08429325  1
  C  C279  1  0.52729729  0.93623043  0.04066085  1
  C  C280  1  0.52870318  0.57006728  0.09258850  1
  C  C281  1  0.70558491  0.82004259  0.01464629  1
  H  H282  1  0.52156344  0.58866905  0.16748951  1
  H  H283  1  0.65037017  0.92241060  0.08934692  1
  C  C284  1  0.81901617  0.60018123  0.08326060  1
  C  C285  1  0.57258292  0.88578588  0.00957694  1
  O  O286  1  0.85354530  0.71454500  0.23337146  1
  C  C287  1  0.60071344  0.94638811  0.10768188  1
  C  C288  1  0.54405681  0.99887980  0.22345399  1
  C  C289  1  0.53059349  0.97324478  0.08786364  1
  C  C290  1  0.60085611  0.94358670  0.15265762  1
  O  O291  1  0.60304692  0.98201012  0.24055700  1
  C  C292  1  0.91544935  0.75348369  0.24268957  1
  H  H293  1  0.81650995  0.76409663  0.01122416  1
  C  C294  1  0.53776583  0.98086319  0.17613083  1
  H  H295  1  0.74579787  0.53922212  0.20924146  1
  C  C296  1  0.75893833  0.72744789  0.49715215  1
  C  C297  1  0.81031176  0.87634415  0.42118066  1
  H  H298  1  0.65331377  0.72701345  0.46801440  1
  H  H299  1  0.91817793  0.84175191  0.44833008  1
  O  O300  1  0.70448894  0.90150522  0.35246681  1
  O  O301  1  0.62004532  0.85416052  0.40036348  1
  C  C302  1  0.85845429  0.83163186  0.45180450  1
  C  C303  1  0.70902233  0.76309858  0.46522333  1
  C  C304  1  0.68504562  0.86927103  0.39083942  1
  H  H305  1  0.83704010  0.70158317  0.31013353  1
  C  C306  1  0.91267352  0.70251170  0.36400492  1
  C  C307  1  0.89318804  0.71984814  0.32199438  1
  C  C308  1  0.73756385  0.83441637  0.42599448  1
  H  H309  1  0.87285695  0.67112020  0.38760123  1
  C  C310  1  0.83452053  0.75970236  0.49180468  1
  H  H311  1  0.82887357  0.94164506  0.39233378  1
  O  O312  1  0.55689893  0.57544390  0.31089803  1
  C  C313  1  0.98499882  0.73014056  0.37465611  1
  C  C314  1  0.94344243  0.75194243  0.28876583  1
  H  H315  1  0.66349103  0.60805132  0.26873861  1
  C  C316  1  0.52570658  0.50111876  0.28076914  1
  H  H317  1  0.84644031  0.71432627  0.70167725  1
  O  O318  1  0.55593863  0.82894386  0.67548127  1
  C  C319  1  0.93396979  0.64727798  0.60605111  1
  C  C320  1  0.68919020  0.90715266  0.65067749  1
  C  C321  1  0.63654251  0.89723027  0.61758587  1
  C  C322  1  0.56512955  0.85738188  0.63535749  1
  H  H323  1  0.67251595  0.87898070  0.68383899  1
  H  H324  1  0.74347026  0.67095095  0.52901339  1
  C  C325  1  0.88130064  0.69979631  0.52724180  1
  H  H326  1  0.82585078  0.70147573  0.62217991  1
  C  C327  1  0.96155092  0.66376603  0.69565157  1
  C  C328  1  0.89122535  0.69388684  0.67971648  1
  C  C329  1  0.91090692  0.66526546  0.56072698  1
  C  C330  1  0.64949650  0.93381543  0.57388800  1
  C  C331  1  0.97000886  0.65879551  0.74272706  1
  C  C332  1  0.87825987  0.68547179  0.63560495  1
  H  H333  1  0.80059998  0.96408711  0.66103138  1
  O  O334  1  0.51170384  0.85476833  0.60949901  1
  H  H335  1  0.96158163  0.92010229  0.65311006  1
  H  H336  1  0.60461657  0.92718496  0.55046239  1
  C  C337  1  0.75907042  0.94680292  0.63756846  1
  C  C338  1  0.71776023  0.98050248  0.56255776  1
  C  C339  1  0.77379440  0.98201798  0.59320202  1
  C  C340  1  0.76417115  0.78230849  0.94585805  1
  H  H341  1  0.59113648  0.84756104  0.92185269  1
  C  C342  1  0.70329265  0.81548597  0.91928244  1
  C  C343  1  0.83309381  0.73563350  0.92465403  1
  O  O344  1  0.91643767  0.70468755  0.76311586  1
  O  O345  1  0.82889717  0.74384301  0.88346859  1
  O  O346  1  0.88896356  0.68285575  0.94252226  1
  C  C347  1  0.76704344  0.78663725  0.99106807  1
  C  C348  1  0.64185796  0.83642352  0.94203903  1
  C  C349  1  0.58490447  0.95642820  0.82008574  1
  H  H350  1  0.70614089  0.81670026  0.88313715  1
  C  C351  1  0.64130283  0.84095154  0.98844433  1
  C  C352  1  0.51613054  0.99148204  0.83576481  1
  H  H353  1  0.58981582  0.87859385  0.79051039  1
  Zn  Zn354  1  0.86818887  0.63536484  0.82718475  1
  O  O355  1  0.70828083  0.94615541  0.77676486  1
