# generated using pymatgen
data_Cu2H11C24(NO5)2
_symmetry_space_group_name_H-M   'P 1'
_cell_length_a   17.16568054
_cell_length_b   14.43766248
_cell_length_c   24.52498088
_cell_angle_alpha   90.00000000
_cell_angle_beta   90.00000000
_cell_angle_gamma   90.00000000
_symmetry_Int_Tables_number   1
_chemical_formula_structural   Cu2H11C24(NO5)2
_chemical_formula_sum   'Cu16 H88 C192 N16 O80'
_cell_volume   6078.08246600
_cell_formula_units_Z   8
loop_
 _symmetry_equiv_pos_site_id
 _symmetry_equiv_pos_as_xyz
  1  'x, y, z'
loop_
 _atom_site_type_symbol
 _atom_site_label
 _atom_site_symmetry_multiplicity
 _atom_site_fract_x
 _atom_site_fract_y
 _atom_site_fract_z
 _atom_site_occupancy
  C  C0  1  0.13713160  0.33628234  0.03003951  1
  C  C1  1  0.30279296  0.13511709  0.14444396  1
  H  H2  1  0.22251948  0.19543249  0.05709203  1
  C  C3  1  0.15424695  0.23462692  0.16501555  1
  C  C4  1  0.32445504  0.21581943  0.10843611  1
  C  C5  1  0.41047612  0.34178677  0.08732910  1
  C  C6  1  0.15726126  0.15226000  0.13784389  1
  C  C7  1  0.49251693  0.38564753  0.09890748  1
  C  C8  1  0.01471931  0.24462640  0.13844724  1
  O  O9  1  0.34850815  0.10378865  0.17455820  1
  C  C10  1  0.28355311  0.33348678  0.04299040  1
  C  C11  1  0.08136753  0.27930026  0.16362466  1
  N  N12  1  0.22803416  0.10042494  0.12643321  1
  C  C13  1  0.26909763  0.24669502  0.06883332  1
  O  O14  1  0.13693929  0.41587167  0.20054143  1
  H  H15  1  0.20288377  0.27095749  0.18083787  1
  C  C16  1  0.01969785  0.15558258  0.11737120  1
  C  C17  1  0.45577306  0.08689033  0.05069797  1
  H  H18  1  0.09385965  0.04088745  0.09329052  1
  H  H19  1  0.12832806  0.27526785  0.05868556  1
  H  H20  1  0.22741563  0.03171524  0.13980907  1
  C  C21  1  0.09069488  0.10852626  0.11528197  1
  C  C22  1  0.49864586  0.46857549  0.01109068  1
  H  H23  1  0.43765672  0.23332375  0.14452174  1
  C  C24  1  0.39408499  0.26167002  0.11712266  1
  C  C25  1  0.31793793  0.10657299  0.00705819  1
  C  C26  1  0.35576312  0.37991917  0.05308192  1
  C  C27  1  0.07499598  0.37257390  0.18945386  1
  C  C28  1  0.21109475  0.37751141  0.01972203  1
  C  C29  1  0.37234068  0.05478163  0.03703149  1
  H  H30  1  0.36496749  0.45119744  0.03404933  1
  C  C31  1  0.07265268  0.37623126  0.00662465  1
  O  O32  1  0.01062076  0.41149943  0.19366641  1
  H  H33  1  0.45370873  0.02156237  0.12978719  1
  C  C34  1  0.48866455  0.14694219  0.01054824  1
  C  C35  1  0.48783951  0.06396540  0.10079344  1
  H  H36  1  0.45090749  0.32615233  0.00748980  1
  C  C37  1  0.45272309  0.33620486  0.30151584  1
  C  C38  1  0.40718691  0.26189845  0.32578152  1
  C  C39  1  0.39495446  0.10444749  0.34489240  1
  O  O40  1  0.16239113  0.13844905  0.39307707  1
  C  C41  1  0.29050423  0.19544204  0.36799171  1
  C  C42  1  0.33202671  0.27176842  0.34725572  1
  O  O43  1  0.18143014  0.28754360  0.37876052  1
  H  H44  1  0.30106277  0.33691837  0.34439094  1
  C  C45  1  0.20772890  0.21164211  0.38165045  1
  O  O46  1  0.41478589  0.41096997  0.29287929  1
  C  C47  1  0.44159845  0.17494035  0.32329530  1
  Cu  Cu48  1  0.13524703  0.05437470  0.34013414  1
  C  C49  1  0.32380179  0.10742991  0.37158785  1
  H  H50  1  0.29420310  0.04233903  0.38381082  1
  H  H51  1  0.06248560  0.45148592  0.45844318  1
  N  N52  1  0.42676968  0.00727655  0.34135177  1
  H  H53  1  0.49563567  0.16488774  0.30031471  1
  O  O54  1  0.44002917  0.20394382  0.62363063  1
  H  H55  1  0.42436496  0.09058141  0.69827900  1
  O  O56  1  0.48862814  0.43094840  0.67993087  1
  C  C57  1  0.49468079  0.46708001  0.63688414  1
  C  C58  1  0.01382231  0.49791043  0.53037149  1
  C  C59  1  0.48640889  0.06577383  0.69204203  1
  H  H60  1  0.27662978  0.47213319  0.96521503  1
  O  O61  1  0.20995588  0.19587238  0.94632836  1
  O  O62  1  0.18119032  0.20548006  0.84339660  1
  C  C63  1  0.14215559  0.26849471  0.81789769  1
  H  H64  1  0.45156139  0.17369751  0.97583564  1
  H  H65  1  0.10428532  0.20867602  0.91253716  1
  O  O66  1  0.39841151  0.34047683  0.84988127  1
  Cu  Cu67  1  0.26412601  0.22826926  0.88590463  1
  O  O68  1  0.16137782  0.29238847  0.77324622  1
  C  C69  1  0.06736628  0.30002540  0.84839554  1
  C  C70  1  0.07638641  0.45211404  0.97220445  1
  O  O71  1  0.34985868  0.27534584  0.92217093  1
  C  C72  1  0.39629568  0.33420157  0.89811169  1
  C  C73  1  0.45885636  0.39293021  0.98560980  1
  C  C74  1  0.43995697  0.40791748  0.93122104  1
  C  C75  1  0.05856485  0.25975290  0.89875928  1
  N  N76  1  0.11149155  0.09152440  0.97445734  1
  C  C77  1  0.18816948  0.12495859  0.96728419  1
  H  H78  1  0.20444730  0.02853076  0.89056732  1
  C  C79  1  0.45509107  0.48873140  0.90206880  1
  C  C80  1  0.09041678  0.01887018  0.93446471  1
  H  H81  1  0.02667630  0.47816255  0.94857609  1
  C  C82  1  0.21832164  0.44726204  0.98085210  1
  C  C83  1  0.01262281  0.35808250  0.82380132  1
  C  C84  1  0.15012982  0.48460849  0.95820787  1
  H  H85  1  0.06606505  0.13717496  0.97882793  1
  H  H86  1  0.43322261  0.49301489  0.85859097  1
  H  H87  1  0.02337684  0.38835540  0.78292311  1
  C  C88  1  0.24546624  0.06665941  0.99496672  1
  H  H89  1  0.33228078  0.17941853  0.99743036  1
  C  C90  1  0.05822986  0.63031925  0.10945904  1
  Cu  Cu91  1  0.03095332  0.67799116  0.21158204  1
  C  C92  1  0.28419449  0.92467284  0.04723121  1
  C  C93  1  0.03729242  0.86684373  0.09450010  1
  C  C94  1  0.02617261  0.92284033  0.18544622  1
  C  C95  1  0.35633559  0.96811997  0.06016046  1
  N  N96  1  0.16383260  0.82938309  0.05595143  1
  O  O97  1  0.28201532  0.79269161  0.09919657  1
  C  C98  1  0.24635463  0.83839419  0.06777489  1
  H  H99  1  0.39996723  0.93151349  0.08357739  1
  H  H100  1  0.17052805  0.95158085  0.00917645  1
  C  C101  1  0.11903709  0.86716670  0.10032350  1
  C  C102  1  0.03252544  0.64691350  0.05320571  1
  H  H103  1  0.01274243  0.85091098  0.05359564  1
  C  C104  1  0.10668403  0.92082645  0.19494030  1
  C  C105  1  0.15281314  0.89059238  0.15186190  1
  O  O106  1  0.12295906  0.59778807  0.12350602  1
  H  H107  1  0.13765820  0.60148217  0.01705231  1
  H  H108  1  0.21617946  0.88417415  0.15785317  1
  H  H109  1  0.15305262  0.75796391  0.05071838  1
  C  C110  1  0.08304718  0.63552040  0.00731436  1
  C  C111  1  0.23097824  0.97891422  0.01664353  1
  Cu  Cu112  1  0.13473517  0.54997487  0.19450884  1
  C  C113  1  0.49694679  0.77736361  0.22027280  1
  O  O114  1  0.00894068  0.65360642  0.14585089  1
  C  C115  1  0.14773134  0.94411211  0.24749274  1
  C  C116  1  0.19120440  0.68032848  0.33287192  1
  C  C117  1  0.29690090  0.75557232  0.40853559  1
  H  H118  1  0.12500073  0.80682816  0.33636303  1
  C  C119  1  0.23075683  0.80453874  0.38988268  1
  C  C120  1  0.37676668  0.60602073  0.40258351  1
  H  H121  1  0.33454484  0.78197628  0.44003842  1
  H  H122  1  0.26316440  0.55567379  0.33978466  1
  C  C123  1  0.25539121  0.62939654  0.35048861  1
  H  H124  1  0.47615527  0.89941955  0.26313828  1
  C  C125  1  0.30686097  0.66691844  0.38591927  1
  C  C126  1  0.17804858  0.76958188  0.35177113  1
  O  O127  1  0.21592823  0.93221143  0.25143958  1
  C  C128  1  0.11579629  0.73639450  0.45682015  1
  C  C129  1  0.08513164  0.82160464  0.43527572  1
  C  C130  1  0.13035836  0.90232433  0.41813100  1
  C  C131  1  0.06148402  0.66555710  0.46260310  1
  O  O132  1  0.42016162  0.61757012  0.43907500  1
  O  O133  1  0.38604778  0.53418603  0.36770487  1
  O  O134  1  0.41305592  0.76141927  0.29601879  1
  H  H135  1  0.17971223  0.71849465  0.46051386  1
  H  H136  1  0.42235901  0.91608796  0.41078895  1
  H  H137  1  0.40779950  0.97524444  0.30817182  1
  O  O138  1  0.09856423  0.97099405  0.39745393  1
  C  C139  1  0.13691712  0.64361198  0.29190862  1
  N  N140  1  0.21033097  0.88683327  0.42445884  1
  H  H141  1  0.25193595  0.93565667  0.42475957  1
  C  C142  1  0.48263690  0.92568734  0.42884546  1
  C  C143  1  0.00529166  0.83843269  0.43835264  1
  Cu  Cu144  1  0.44724293  0.53899969  0.30462421  1
  O  O145  1  0.07654354  0.69174737  0.28167007  1
  O  O146  1  0.10368012  0.96919215  0.28888753  1
  O  O147  1  0.14661264  0.56601123  0.27091871  1
  O  O148  1  0.44395355  0.63471057  0.25210099  1
  C  C149  1  0.10129574  0.57272271  0.47408128  1
  C  C150  1  0.44956746  0.72394016  0.26138424  1
  N  N151  1  0.03568134  0.50893181  0.47401188  1
  O  O152  1  0.16834959  0.55965888  0.48180146  1
  C  C153  1  0.44058568  0.61424996  0.67270990  1
  H  H154  1  0.40917771  0.82180123  0.60596075  1
  O  O155  1  0.37552499  0.85439016  0.51666010  1
  C  C156  1  0.38702436  0.76251022  0.70687336  1
  N  N157  1  0.47863392  0.74302789  0.51704815  1
  C  C158  1  0.46216769  0.70194854  0.56961596  1
  C  C159  1  0.41918201  0.70564508  0.66295057  1
  C  C160  1  0.42763895  0.75173433  0.61330694  1
  O  O161  1  0.36089541  0.84193710  0.70187855  1
  H  H162  1  0.43264973  0.57765645  0.71292264  1
  C  C163  1  0.44036326  0.82827980  0.50988185  1
  H  H164  1  0.07178703  0.61796744  0.57189226  1
  O  O165  1  0.06352795  0.66009113  0.66893341  1
  C  C166  1  0.47151787  0.56626589  0.62869194  1
  C  C167  1  0.02818303  0.55811305  0.57556978  1
  C  C168  1  0.02754110  0.59034157  0.67693367  1
  C  C169  1  0.47967111  0.60842640  0.57894622  1
  C  C170  1  0.00201967  0.53343675  0.62659113  1
  O  O171  1  0.01120189  0.55865102  0.72522106  1
  H  H172  1  0.10914034  0.67796391  0.88308039  1
  N  N173  1  0.10182120  0.62029217  0.90796956  1
  H  H174  1  0.03598837  0.84164186  0.82449127  1
  C  C175  1  0.05291253  0.88987371  0.85778467  1
  Cu  Cu176  1  0.30852924  0.90679360  0.75698205  1
  O  O177  1  0.40075271  0.72879012  0.75475962  1
  C  C178  1  0.05361242  0.64275289  0.95518567  1
  O  O179  1  0.23015214  0.57654356  0.90181545  1
  C  C180  1  0.16666916  0.56313285  0.91808291  1
  C  C181  1  0.18221849  0.89732298  0.81465733  1
  C  C182  1  0.01941091  0.97733206  0.93919134  1
  O  O183  1  0.24695959  0.94657598  0.80906057  1
  O  O184  1  0.39361857  0.97951326  0.76925885  1
  C  C185  1  0.12824051  0.92458210  0.85984580  1
  C  C186  1  0.46361826  0.95332680  0.76679833  1
  O  O187  1  0.16232319  0.84030056  0.78318815  1
  Cu  Cu188  1  0.47432057  0.76432899  0.80843649  1
  C  C189  1  0.49178972  0.56046440  0.92987700  1
  O  O190  1  0.48007720  0.65434590  0.84627568  1
  O  O191  1  0.48936010  0.89635232  0.80152339  1
  C  C192  1  0.14967111  0.99270253  0.89588840  1
  O  O193  1  0.87780894  0.13332618  0.10555289  1
  O  O194  1  0.94159564  0.36635221  0.04453338  1
  O  O195  1  0.88269972  0.14795752  0.23129978  1
  C  C196  1  0.56536060  0.17408023  0.02320625  1
  C  C197  1  0.94784401  0.11183939  0.08858310  1
  C  C198  1  0.60174434  0.14999944  0.07282978  1
  H  H199  1  0.65994541  0.17580876  0.08265493  1
  Cu  Cu200  1  0.85004342  0.07703572  0.17309264  1
  O  O201  1  0.95180590  0.06078278  0.05026779  1
  C  C202  1  0.99126771  0.32835618  0.01813845  1
  O  O203  1  0.52767189  0.34462279  0.13225544  1
  C  C204  1  0.56455967  0.09204329  0.11058616  1
  C  C205  1  0.61012107  0.06944913  0.16165929  1
  O  O206  1  0.67269288  0.09448683  0.17292395  1
  H  H207  1  0.95955092  0.28704745  0.13504398  1
  O  O208  1  0.78000481  0.23677699  0.23736860  1
  N  N209  1  0.55788394  0.02624646  0.19940345  1
  H  H210  1  0.56054869  0.49931858  0.07711467  1
  N  N211  1  0.50474372  0.46571271  0.07127313  1
  H  H212  1  0.55822601  0.04344631  0.23878193  1
  H  H213  1  0.93684627  0.22276051  0.00380304  1
  C  C214  1  0.50952339  0.00943571  0.34390019  1
  C  C215  1  0.70959725  0.28898537  0.42984498  1
  H  H216  1  0.74779798  0.28928857  0.32380535  1
  N  N217  1  0.92948747  0.04370515  0.42721196  1
  O  O218  1  0.67808671  0.34914858  0.39322155  1
  O  O219  1  0.55393476  0.03390866  0.30953751  1
  H  H220  1  0.82474471  0.15532670  0.47824054  1
  C  C221  1  0.77212340  0.22660545  0.40643404  1
  Cu  Cu222  1  0.60501939  0.34276071  0.33904500  1
  C  C223  1  0.88622759  0.12598684  0.34729202  1
  O  O224  1  0.68633473  0.28263024  0.47609225  1
  O  O225  1  0.64296659  0.44403786  0.30256001  1
  H  H226  1  0.92412772  0.08429309  0.32026196  1
  C  C227  1  0.87955107  0.11660246  0.40454580  1
  C  C228  1  0.82204706  0.16697115  0.43419753  1
  C  C229  1  0.83672552  0.18588764  0.32066313  1
  C  C230  1  0.78055706  0.23738109  0.34891867  1
  H  H231  1  0.98247050  0.05817767  0.41117200  1
  C  C232  1  0.92510942  0.03806396  0.48476894  1
  H  H233  1  0.66330078  0.01231519  0.39304327  1
  O  O234  1  0.52408253  0.32455083  0.29122880  1
  C  C235  1  0.82924373  0.19050864  0.25923703  1
  C  C236  1  0.89512271  0.30652323  0.59614141  1
  C  C237  1  0.61464184  0.07552416  0.64701478  1
  H  H238  1  0.89349590  0.04648517  0.58787879  1
  O  O239  1  0.87207577  0.27042671  0.55576375  1
  Cu  Cu240  1  0.77626569  0.26113244  0.67045381  1
  O  O241  1  0.67911338  0.23360462  0.69818296  1
  H  H242  1  0.94325171  0.42809760  0.67711695  1
  C  C243  1  0.83875941  0.02511376  0.56459370  1
  O  O244  1  0.75261675  0.38777455  0.66818426  1
  C  C245  1  0.53741885  0.10489277  0.65566476  1
  O  O246  1  0.53254140  0.42887526  0.59441818  1
  C  C247  1  0.72443281  0.43771318  0.63037687  1
  O  O248  1  0.68622561  0.40593214  0.59107719  1
  O  O249  1  0.87643013  0.27634078  0.64548787  1
  H  H250  1  0.65533096  0.10477354  0.61527293  1
  O  O251  1  0.55702575  0.22129351  0.58816365  1
  O  O252  1  0.82996518  0.04873646  0.67460895  1
  Cu  Cu253  1  0.59892763  0.33533566  0.59264555  1
  C  C254  1  0.94363050  0.39371385  0.59095848  1
  C  C255  1  0.96184889  0.45053176  0.63539328  1
  C  C256  1  0.96980314  0.41511804  0.53997880  1
  C  C257  1  0.84373138  0.01812425  0.50769611  1
  O  O258  1  0.97583437  0.05176346  0.51516661  1
  H  H259  1  0.95443181  0.37161537  0.50619384  1
  O  O260  1  0.61160944  0.33708859  0.74654739  1
  C  C261  1  0.64308984  0.26431838  0.74405213  1
  C  C262  1  0.50526183  0.17930410  0.62027770  1
  C  C263  1  0.76806417  0.00601268  0.59085562  1
  C  C264  1  0.64052267  0.00289970  0.68157826  1
  C  C265  1  0.77580472  0.01722805  0.65287029  1
  C  C266  1  0.94631981  0.37652714  0.85521087  1
  H  H267  1  0.65252169  0.07680913  0.93157640  1
  C  C268  1  0.93310904  0.33937413  0.90673538  1
  O  O269  1  0.83250950  0.45573641  0.86102760  1
  C  C270  1  0.64743163  0.11797519  0.89196735  1
  H  H271  1  0.57764230  0.32025744  0.83612800  1
  C  C272  1  0.60787523  0.20181866  0.88781178  1
  H  H273  1  0.87947269  0.35170065  0.92784982  1
  N  N274  1  0.57055898  0.24422236  0.93506752  1
  C  C275  1  0.64805381  0.21235650  0.79572108  1
  H  H276  1  0.57164749  0.31569210  0.93695471  1
  C  C277  1  0.60725283  0.25152926  0.84013802  1
  C  C278  1  0.68958051  0.13039266  0.79552695  1
  C  C279  1  0.68739264  0.08484827  0.84591792  1
  O  O280  1  0.68015243  0.25751046  0.99250471  1
  C  C281  1  0.88553759  0.44101503  0.83105346  1
  H  H282  1  0.72158302  0.10208518  0.76144750  1
  O  O283  1  0.88848490  0.47406072  0.78167866  1
  C  C284  1  0.61600996  0.23127161  0.98481060  1
  C  C285  1  0.99031603  0.27978033  0.92800417  1
  N  N286  1  0.98896446  0.24894056  0.98560449  1
  O  O287  1  0.67506960  0.78793256  0.06771121  1
  C  C288  1  0.53611993  0.72985524  0.17904440  1
  C  C289  1  0.58126173  0.78451201  0.14329118  1
  O  O290  1  0.62497820  0.65682931  0.09699724  1
  C  C291  1  0.58818951  0.88002030  0.14974544  1
  C  C292  1  0.63013798  0.73888081  0.10150982  1
  O  O293  1  0.87304561  0.86395938  0.09049013  1
  C  C294  1  0.50481935  0.87309532  0.22729379  1
  C  C295  1  0.95653422  0.67291103  0.04393814  1
  C  C296  1  0.54818604  0.92692683  0.19123555  1
  O  O297  1  0.91969814  0.69954212  0.22857098  1
  Cu  Cu298  1  0.77429024  0.82119687  0.07499975  1
  H  H299  1  0.92136474  0.68412533  0.07992619  1
  O  O300  1  0.86810099  0.94224176  0.16748197  1
  C  C301  1  0.90482257  0.90242968  0.13142571  1
  H  H302  1  0.62749948  0.91929981  0.12160055  1
  O  O303  1  0.80291577  0.71286009  0.02981635  1
  H  H304  1  0.53533637  0.65251351  0.17479116  1
  Cu  Cu305  1  0.98245987  0.50476562  0.24360835  1
  C  C306  1  0.99022845  0.89461049  0.13690494  1
  H  H307  1  0.99004315  0.94957935  0.22000715  1
  C  C308  1  0.87227969  0.64636361  0.24959771  1
  H  H309  1  0.53821645  0.60877437  0.00856188  1
  C  C310  1  0.63407231  0.95137040  0.46990931  1
  H  H311  1  0.63800481  0.80759648  0.40676896  1
  C  C312  1  0.70223188  0.80086006  0.41675592  1
  H  H313  1  0.98392773  0.90916120  0.42718795  1
  C  C314  1  0.61822110  0.52594232  0.30599141  1
  C  C315  1  0.95013590  0.76812285  0.44921219  1
  O  O316  1  0.55314056  0.54333548  0.32629536  1
  N  N317  1  0.67026981  0.86491236  0.30719089  1
  O  O318  1  0.61478750  0.65340536  0.49550722  1
  C  C319  1  0.75721782  0.84376840  0.38274711  1
  C  C320  1  0.72708571  0.75002847  0.46376113  1
  C  C321  1  0.66538588  0.60925164  0.29186676  1
  C  C322  1  0.80630351  0.74060676  0.47624261  1
  C  C323  1  0.86356512  0.78088344  0.44082876  1
  H  H324  1  0.64745854  0.91129059  0.27749182  1
  H  H325  1  0.87722918  0.87224328  0.37066173  1
  C  C326  1  0.77695838  0.99046806  0.47890109  1
  C  C327  1  0.74382986  0.59699652  0.27738639  1
  C  C328  1  0.98175481  0.67834297  0.46093484  1
  C  C329  1  0.83623834  0.83672704  0.39540068  1
  C  C330  1  0.53792033  0.97453723  0.39918116  1
  C  C331  1  0.73930348  0.90262425  0.33006635  1
  O  O332  1  0.77898252  0.96510276  0.31492608  1
  H  H333  1  0.57459290  0.71618811  0.30709701  1
  C  C334  1  0.63769835  0.69873377  0.29932227  1
  C  C335  1  0.69117880  0.77046598  0.29137693  1
  H  H336  1  0.94687563  0.61494833  0.46462834  1
  C  C337  1  0.77018670  0.76493515  0.27361740  1
  C  C338  1  0.79296427  0.67436178  0.26618822  1
  H  H339  1  0.78196580  0.98266361  0.43532906  1
  H  H340  1  0.76547265  0.52612552  0.27493098  1
  H  H341  1  0.80772210  0.82474256  0.27353053  1
  O  O342  1  0.88959566  0.55977760  0.25580503  1
  C  C343  1  0.61644817  0.98637499  0.41896384  1
  C  C344  1  0.50351294  0.88823056  0.47957380  1
  H  H345  1  0.66927632  0.57209305  0.55858401  1
  N  N346  1  0.68752782  0.75218183  0.55594200  1
  N  N347  1  0.71643497  0.96142667  0.67873580  1
  C  C348  1  0.76918543  0.57343958  0.67948310  1
  H  H349  1  0.59230335  0.86687768  0.54033003  1
  H  H350  1  0.76006192  0.80503637  0.65047147  1
  C  C351  1  0.75057153  0.72960164  0.64548537  1
  C  C352  1  0.58863794  0.96009598  0.71841018  1
  H  H353  1  0.64959787  0.96002610  0.58292110  1
  C  C354  1  0.51336848  0.99114394  0.72394358  1
  C  C355  1  0.71292756  0.69257938  0.60096271  1
  H  H356  1  0.72280903  0.80548844  0.54561220  1
  C  C357  1  0.77519963  0.66837943  0.68702201  1
  H  H358  1  0.50734720  0.56914542  0.54430173  1
  H  H359  1  0.79260493  0.52914602  0.70963823  1
  C  C360  1  0.73148247  0.53607785  0.63340510  1
  C  C361  1  0.70266036  0.97755008  0.56175429  1
  C  C362  1  0.69744309  0.59842606  0.59541125  1
  H  H363  1  0.73290576  0.93058585  0.71577147  1
  O  O364  1  0.80182638  0.79639811  0.74590061  1
  C  C365  1  0.80282829  0.71002475  0.73887534  1
  H  H366  1  0.82746328  0.69679514  0.51205079  1
  C  C367  1  0.57731789  0.90078287  0.50178948  1
  C  C368  1  0.70515287  0.97309649  0.50446246  1
  H  H369  1  0.60989203  0.90352928  0.74456115  1
  H  H370  1  0.53627085  0.73810776  0.50537940  1
  C  C371  1  0.66902210  0.70711421  0.50545014  1
  O  O372  1  0.73403533  0.95567032  0.89496883  1
  Cu  Cu373  1  0.82717923  0.85735750  0.81214209  1
  O  O374  1  0.86598435  0.90244495  0.92868548  1
  O  O375  1  0.75233323  0.95133458  0.80780883  1
  C  C376  1  0.91959270  0.87671650  0.89508769  1
  O  O377  1  0.81129824  0.72498184  0.94165114  1
  C  C378  1  0.72695451  0.99206386  0.84878600  1
  Cu  Cu379  1  0.77356199  0.84235364  0.91484647  1
  O  O380  1  0.90472837  0.82250532  0.85576511  1
  H  H381  1  0.94751689  0.68410088  0.90786429  1
  Cu  Cu382  1  0.92152162  0.59459456  0.75746581  1
  O  O383  1  0.82419516  0.65343195  0.77508440  1
  C  C384  1  0.97520073  0.67360521  0.94744289  1
  C  C385  1  0.84184233  0.70778861  0.98678443  1
  C  C386  1  0.99732046  0.91467121  0.89762705  1
  C  C387  1  0.92529299  0.68484812  0.99046169  1
  O  O388  1  0.53082077  0.71249953  0.91952165  1
  H  H389  1  0.97987137  0.98729960  0.97414433  1
  C  C390  1  0.50087997  0.64875949  0.89746117  1
  C  C391  1  0.51732684  0.55159792  0.98513719  1
