# generated using pymatgen
data_Cu2H11C24(NO5)2
_symmetry_space_group_name_H-M   'P 1'
_cell_length_a   15.52880790
_cell_length_b   19.31235530
_cell_length_c   19.93740919
_cell_angle_alpha   90.00000000
_cell_angle_beta   90.00000000
_cell_angle_gamma   90.00000000
_symmetry_Int_Tables_number   1
_chemical_formula_structural   Cu2H11C24(NO5)2
_chemical_formula_sum   'Cu16 H88 C192 N16 O80'
_cell_volume   5979.18626253
_cell_formula_units_Z   8
loop_
 _symmetry_equiv_pos_site_id
 _symmetry_equiv_pos_as_xyz
  1  'x, y, z'
loop_
 _atom_site_type_symbol
 _atom_site_label
 _atom_site_symmetry_multiplicity
 _atom_site_fract_x
 _atom_site_fract_y
 _atom_site_fract_z
 _atom_site_occupancy
  C  C0  1  0.23224025  0.19210222  0.07228998  1
  H  H1  1  0.17684422  0.17713619  0.17442429  1
  N  N2  1  0.47976452  0.14297655  0.17843010  1
  C  C3  1  0.23269215  0.19689646  0.14233204  1
  O  O4  1  0.09503286  0.13218318  0.07854336  1
  C  C5  1  0.12484727  0.36411887  0.14446271  1
  C  C6  1  0.49161079  0.02658366  0.23636438  1
  Cu  Cu7  1  0.08203266  0.03774193  0.10943828  1
  C  C8  1  0.13603693  0.36780840  0.07361519  1
  C  C9  1  0.30510025  0.22973834  0.17257045  1
  H  H10  1  0.05454058  0.32218912  0.22563286  1
  O  O11  1  0.22450345  0.45735979  0.16505347  1
  H  H12  1  0.31387574  0.11391674  0.17227329  1
  C  C13  1  0.37692192  0.25072259  0.13234894  1
  H  H14  1  0.18539747  0.40080911  0.05076586  1
  C  C15  1  0.17974727  0.40807290  0.18746373  1
  C  C16  1  0.15410780  0.16045874  0.03821520  1
  C  C17  1  0.35431581  0.06960790  0.19264795  1
  C  C18  1  0.44237278  0.07908277  0.20616669  1
  C  C19  1  0.08370036  0.33031832  0.03214022  1
  H  H20  1  0.43957286  0.26651196  0.15637946  1
  C  C21  1  0.37034296  0.24094718  0.06272983  1
  C  C22  1  0.02543338  0.28276261  0.06155561  1
  C  C23  1  0.29992675  0.21314389  0.02975833  1
  C  C24  1  0.06400819  0.32057623  0.17326275  1
  C  C25  1  0.45305997  0.25624349  0.02391835  1
  C  C26  1  0.46870469  0.04904563  0.07400442  1
  H  H27  1  0.40432674  0.07070351  0.09269813  1
  H  H28  1  0.47296877  0.18462688  0.21004205  1
  O  O29  1  0.17721532  0.04776957  0.16400418  1
  O  O30  1  0.46579161  0.36894937  0.20202482  1
  C  C31  1  0.01270726  0.27985628  0.13022912  1
  O  O32  1  0.17717676  0.39320219  0.24875449  1
  N  N33  1  0.31398207  0.23120839  0.24522893  1
  Cu  Cu34  1  0.48657555  0.45797811  0.16793229  1
  C  C35  1  0.31367656  0.00779547  0.21042378  1
  C  C36  1  0.24009857  0.20016698  0.28007432  1
  O  O37  1  0.36505030  0.38042471  0.28133487  1
  C  C38  1  0.26685814  0.30874502  0.42578008  1
  H  H39  1  0.39981540  0.18869325  0.44920264  1
  Cu  Cu40  1  0.25854739  0.32793580  0.28466008  1
  C  C41  1  0.21869996  0.08409358  0.32402690  1
  C  C42  1  0.32434370  0.01803796  0.38924316  1
  C  C43  1  0.27680772  0.13747582  0.31920182  1
  C  C44  1  0.43753821  0.35648403  0.26133303  1
  H  H45  1  0.17129565  0.41644959  0.46659444  1
  O  O46  1  0.30987623  0.25721868  0.42089191  1
  H  H47  1  0.40624596  0.34080145  0.38615470  1
  C  C48  1  0.35473107  0.13813863  0.35201360  1
  C  C49  1  0.37492319  0.07862144  0.38951580  1
  H  H50  1  0.35999351  0.19691566  0.26072762  1
  O  O51  1  0.24989461  0.35143045  0.37662385  1
  H  H52  1  0.39791495  0.18252345  0.35431582  1
  H  H53  1  0.15027996  0.08832908  0.30304979  1
  O  O54  1  0.16596643  0.21291266  0.27485687  1
  C  C55  1  0.47109188  0.32503546  0.37474698  1
  C  C56  1  0.24521560  0.02283850  0.35741871  1
  C  C57  1  0.45749768  0.08942269  0.42964024  1
  C  C58  1  0.45812938  0.15482519  0.46113684  1
  O  O59  1  0.47051230  0.49001098  0.47441135  1
  N  N60  1  0.48852214  0.29180733  0.49079278  1
  C  C61  1  0.24043303  0.32228634  0.49712672  1
  C  C62  1  0.25603633  0.30944549  0.61786968  1
  O  O63  1  0.31784870  0.20918079  0.66260422  1
  H  H64  1  0.47882668  0.34004316  0.51056743  1
  C  C65  1  0.43255412  0.47362853  0.61082382  1
  C  C66  1  0.12011527  0.24867370  0.74745538  1
  C  C67  1  0.08681255  0.22105227  0.68891513  1
  C  C68  1  0.20990816  0.37098041  0.62829118  1
  C  C69  1  0.49835976  0.42268511  0.60668326  1
  H  H70  1  0.19631194  0.38869520  0.67932587  1
  C  C71  1  0.02305421  0.25808840  0.65450715  1
  H  H72  1  0.10849417  0.16832466  0.66886152  1
  C  C73  1  0.07204320  0.47536387  0.51459660  1
  C  C74  1  0.38990999  0.42331862  0.71895719  1
  O  O75  1  0.43690480  0.10347521  0.71773105  1
  C  C76  1  0.03762698  0.35044044  0.73773213  1
  C  C77  1  0.29101118  0.26776060  0.67345933  1
  C  C78  1  0.47752442  0.06522666  0.67125287  1
  C  C79  1  0.19487171  0.38401273  0.50682841  1
  C  C80  1  0.46055469  0.37653765  0.71181199  1
  H  H81  1  0.05658271  0.33742338  0.56067247  1
  C  C82  1  0.37989599  0.47028973  0.66670200  1
  C  C83  1  0.17739046  0.40561942  0.57339676  1
  N  N84  1  0.11518577  0.46427320  0.57436301  1
  C  C85  1  0.26378874  0.28249727  0.55299295  1
  O  O86  1  0.44862042  0.01866894  0.64044315  1
  H  H87  1  0.29867147  0.23624719  0.54253110  1
  O  O88  1  0.29399648  0.29904227  0.72982491  1
  Cu  Cu89  1  0.32072835  0.12440094  0.73208083  1
  O  O90  1  0.22351933  0.23087788  0.83054923  1
  N  N91  1  0.08720093  0.34034134  0.95892178  1
  O  O92  1  0.20882090  0.39798399  0.91613635  1
  C  C93  1  0.01316734  0.05339023  0.80583280  1
  O  O94  1  0.42174635  0.33188167  0.82018123  1
  C  C95  1  0.08709361  0.46260340  0.96306213  1
  Cu  Cu96  1  0.32196320  0.28144355  0.82211775  1
  H  H97  1  0.12309223  0.33622093  0.82017510  1
  H  H98  1  0.11134247  0.29948443  0.92947964  1
  C  C99  1  0.46902031  0.32647813  0.76782610  1
  C  C100  1  0.13932641  0.39734988  0.93991572  1
  O  O101  1  0.45340228  0.24681620  0.96501899  1
  C  C102  1  0.18330466  0.20583737  0.78235098  1
  C  C103  1  0.09860123  0.31426456  0.77293947  1
  C  C104  1  0.01225608  0.01054529  0.86732025  1
  O  O105  1  0.32106912  0.05010554  0.79888017  1
  H  H106  1  0.29957806  0.20461454  0.97481088  1
  O  O107  1  0.20129991  0.14806732  0.75617941  1
  O  O108  1  0.14410651  0.15936849  0.97912750  1
  O  O109  1  0.04658748  0.45042736  0.80678370  1
  H  H110  1  0.34193034  0.42146355  0.76015859  1
  C  C111  1  0.00207062  0.45685077  0.98367202  1
  C  C112  1  0.00914154  0.42245692  0.76119919  1
  O  O113  1  0.03916380  0.02791363  0.75157766  1
  O  O114  1  0.34564813  0.55525462  0.12870496  1
  O  O115  1  0.19302084  0.93677627  0.19743597  1
  H  H116  1  0.30256452  0.85348288  0.15046826  1
  C  C117  1  0.36533181  0.69973876  0.12876839  1
  H  H118  1  0.29942931  0.67905184  0.12298935  1
  C  C119  1  0.19635793  0.75229683  0.06292382  1
  C  C120  1  0.46486109  0.79803540  0.13761582  1
  H  H121  1  0.23227645  0.84650606  0.00216244  1
  O  O122  1  0.18578254  0.77130927  0.18326579  1
  O  O123  1  0.31941065  0.97009324  0.04552508  1
  C  C124  1  0.41959036  0.58050076  0.12957652  1
  N  N125  1  0.30381766  0.81226830  0.11668870  1
  C  C126  1  0.22336123  0.77854659  0.13302297  1
  C  C127  1  0.37872046  0.76942221  0.12866213  1
  Cu  Cu128  1  0.27098371  0.53663008  0.20624883  1
  C  C129  1  0.43536655  0.65377477  0.13646869  1
  H  H130  1  0.17097669  0.65048320  0.10600058  1
  C  C131  1  0.36125889  0.95395428  0.24049899  1
  C  C132  1  0.16754604  0.68373885  0.06191447  1
  C  C133  1  0.46698199  0.98898348  0.03508813  1
  H  H134  1  0.47542096  0.85417370  0.14023765  1
  C  C135  1  0.38377232  0.95038618  0.02327061  1
  H  H136  1  0.39356510  0.83582123  0.01317451  1
  C  C137  1  0.22164808  0.99358966  0.19113644  1
  H  H138  1  0.01543767  0.89923133  0.02601937  1
  C  C139  1  0.00068237  0.69210887  0.17518697  1
  O  O140  1  0.48979639  0.54456898  0.13252461  1
  C  C141  1  0.19917850  0.79524858  0.00369395  1
  C  C142  1  0.13138405  0.65818564  0.00250833  1
  H  H143  1  0.19627530  0.85830161  0.34598941  1
  H  H144  1  0.28945692  0.78588824  0.42954080  1
  C  C145  1  0.18642674  0.96079761  0.35739804  1
  H  H146  1  0.14796131  0.97691804  0.47069929  1
  O  O147  1  0.29069445  0.58455782  0.28110832  1
  C  C148  1  0.44284564  0.61955550  0.29255922  1
  C  C149  1  0.49550565  0.90660424  0.28850486  1
  N  N150  1  0.22805353  0.89745580  0.37437905  1
  C  C151  1  0.21702318  0.88305161  0.44640165  1
  O  O152  1  0.32623958  0.68363870  0.32595497  1
  C  C153  1  0.25791323  0.82133903  0.46762157  1
  C  C154  1  0.34796713  0.63063085  0.30138165  1
  O  O155  1  0.45490737  0.85780422  0.30790190  1
  C  C156  1  0.46802333  0.55176218  0.27599941  1
  H  H157  1  0.34601500  0.97246205  0.41863451  1
  H  H158  1  0.47266800  0.72208368  0.32486074  1
  O  O159  1  0.11487286  0.96874292  0.33631072  1
  H  H160  1  0.42292696  0.51154525  0.27022107  1
  C  C161  1  0.44704967  0.96600449  0.25505254  1
  C  C162  1  0.49867767  0.67304980  0.30642508  1
  C  C163  1  0.17048839  0.92693052  0.49044358  1
  O  O164  1  0.08241064  0.52221240  0.47735769  1
  H  H165  1  0.33262085  0.90375215  0.25377138  1
  O  O166  1  0.25998390  0.98157817  0.72702357  1
  C  C167  1  0.31082194  0.52373579  0.67604231  1
  C  C168  1  0.29006874  0.73530346  0.55467930  1
  C  C169  1  0.11454305  0.94779665  0.61028826  1
  O  O170  1  0.35554979  0.73965252  0.72843870  1
  O  O171  1  0.31713363  0.57949976  0.63762353  1
  O  O172  1  0.11416890  0.93427301  0.67395095  1
  C  C173  1  0.19886017  0.84429514  0.57922768  1
  C  C174  1  0.16018897  0.90632792  0.55720595  1
  Cu  Cu175  1  0.34132230  0.66400940  0.67507526  1
  C  C176  1  0.25147050  0.80524566  0.53560439  1
  H  H177  1  0.19164211  0.82638769  0.63104466  1
  O  O178  1  0.27253329  0.71270443  0.61640079  1
  O  O179  1  0.26134755  0.51831131  0.72065552  1
  H  H180  1  0.42811343  0.51035404  0.56808495  1
  O  O181  1  0.33586275  0.70391501  0.52024064  1
  H  H182  1  0.33597038  0.86532832  0.73586956  1
  H  H183  1  0.14212743  0.50743632  0.59022673  1
  O  O184  1  0.08289015  0.99962268  0.58760503  1
  Cu  Cu185  1  0.14899684  0.99933726  0.73968033  1
  C  C186  1  0.12953410  0.52676216  0.96744585  1
  C  C187  1  0.30587048  0.98988185  0.78082857  1
  C  C188  1  0.34617644  0.93417428  0.81859559  1
  C  C189  1  0.12922724  0.81380039  0.89182502  1
  O  O190  1  0.39501055  0.68884335  0.82087039  1
  O  O191  1  0.16094327  0.82166491  0.83807937  1
  C  C192  1  0.34531414  0.86853002  0.78885200  1
  C  C193  1  0.16231670  0.76373403  0.94822367  1
  C  C194  1  0.40579812  0.82163101  0.89003973  1
  C  C195  1  0.08628772  0.58545215  0.99428454  1
  C  C196  1  0.38172067  0.74179886  0.79094198  1
  H  H197  1  0.19902116  0.52212328  0.95346450  1
  C  C198  1  0.37704302  0.81245729  0.82352689  1
  C  C199  1  0.36254814  0.94509778  0.88586054  1
  N  N200  1  0.04700888  0.82880624  0.91548407  1
  C  C201  1  0.02798596  0.93918960  0.85905523  1
  C  C202  1  0.13218971  0.69389842  0.94261954  1
  H  H203  1  0.10900957  0.66975525  0.89608705  1
  C  C204  1  0.39225527  0.88548056  0.92097725  1
  H  H205  1  0.42728629  0.77597522  0.91550290  1
  H  H206  1  0.04863613  0.91731403  0.80877898  1
  H  H207  1  0.03772950  0.80243791  0.96141014  1
  C  C208  1  0.03161438  0.90316595  0.91846355  1
  N  N209  1  0.40546205  0.88391544  0.99245406  1
  C  C210  1  0.00953809  0.93202849  0.98241930  1
  H  H211  1  0.35235206  0.99511584  0.91175360  1
  O  O212  1  0.52424593  0.26799239  0.05646265  1
  O  O213  1  0.85133543  0.07363938  0.12423911  1
  O  O214  1  0.73309175  0.18876387  0.03477222  1
  Cu  Cu215  1  0.62512717  0.22449034  0.04962403  1
  Cu  Cu216  1  0.94040449  0.11546630  0.07777897  1
  H  H217  1  0.69221375  0.08078733  0.07981939  1
  O  O218  1  0.98713887  0.02999712  0.05188494  1
  C  C219  1  0.62961512  0.05232476  0.06921644  1
  O  O220  1  0.90117579  0.20249637  0.10756541  1
  C  C221  1  0.93903601  0.23598572  0.15149582  1
  H  H222  1  0.81072047  0.31723818  0.07289202  1
  C  C223  1  0.80432763  0.33376957  0.02057760  1
  N  N224  1  0.84576354  0.45173692  0.05725456  1
  H  H225  1  0.80940248  0.44955908  0.09954919  1
  C  C226  1  0.55083808  0.07808102  0.09302771  1
  O  O227  1  0.87661381  0.09113629  0.23235145  1
  O  O228  1  0.91797160  0.23172461  0.21354726  1
  C  C229  1  0.86404567  0.05013018  0.18385447  1
  O  O230  1  0.61240844  0.17957333  0.13490250  1
  C  C231  1  0.54942438  0.13851820  0.13823912  1
  H  H232  1  0.98153350  0.25264098  0.02766736  1
  O  O233  1  0.72884917  0.45512655  0.22551021  1
  C  C234  1  0.82300005  0.40281312  0.00450559  1
  H  H235  1  0.59988023  0.30573716  0.23716450  1
  N  N236  1  0.58149375  0.46984341  0.24131106  1
  C  C237  1  0.52536930  0.29727951  0.42223010  1
  C  C238  1  0.60977577  0.27747901  0.40396647  1
  H  H239  1  0.56486113  0.42789087  0.27339128  1
  C  C240  1  0.63834353  0.28348480  0.33900031  1
  C  C241  1  0.60229496  0.47032402  0.38421740  1
  C  C242  1  0.72743517  0.25592185  0.32664395  1
  O  O243  1  0.76914854  0.23449910  0.37358087  1
  C  C244  1  0.75259580  0.43574681  0.36727877  1
  H  H245  1  0.80724777  0.42534684  0.32992090  1
  C  C246  1  0.67225694  0.46120770  0.26354982  1
  C  C247  1  0.59921195  0.06519133  0.47348607  1
  C  C248  1  0.85370027  0.33735219  0.49649556  1
  H  H249  1  0.65748472  0.25478691  0.43926374  1
  C  C250  1  0.76778808  0.43233643  0.43741242  1
  C  C251  1  0.52871593  0.04374770  0.43840623  1
  C  C252  1  0.58218724  0.30924912  0.28960720  1
  C  C253  1  0.67274954  0.45518101  0.34118533  1
  O  O254  1  0.75517213  0.24949553  0.26376830  1
  C  C255  1  0.61738998  0.46023791  0.45220485  1
  C  C256  1  0.69624102  0.44093944  0.48040482  1
  H  H257  1  0.53972303  0.48645566  0.36515819  1
  C  C258  1  0.92441849  0.44431182  0.47176498  1
  H  H259  1  0.79991739  0.30006566  0.49356397  1
  C  C260  1  0.85099282  0.40313170  0.46647398  1
  H  H261  1  0.92740950  0.49376768  0.44336187  1
  H  H262  1  0.55845050  0.03449543  0.25431204  1
  C  C263  1  0.50129968  0.33207771  0.30798799  1
  C  C264  1  0.67623315  0.01888447  0.48877570  1
  C  C265  1  0.53457419  0.46549116  0.49422758  1
  Cu  Cu266  1  0.82611345  0.17522395  0.25082482  1
  H  H267  1  0.81013385  0.13360885  0.63758155  1
  H  H268  1  0.56877993  0.33426410  0.65399527  1
  C  C269  1  0.74035799  0.11811246  0.63912347  1
  O  O270  1  0.81026568  0.20607459  0.73245765  1
  C  C271  1  0.53920450  0.25033520  0.53176721  1
  H  H272  1  0.65601627  0.15040467  0.53048343  1
  O  O273  1  0.85739796  0.20830618  0.55273391  1
  N  N274  1  0.73667555  0.05067193  0.53291198  1
  C  C275  1  0.69753640  0.07022628  0.59655219  1
  C  C276  1  0.92920240  0.31148880  0.52940923  1
  O  O277  1  0.58729598  0.26762008  0.57427981  1
  C  C278  1  0.57030097  0.08241052  0.66187221  1
  N  N279  1  0.55690791  0.42482468  0.55198342  1
  O  O280  1  0.94687051  0.44886953  0.72681572  1
  C  C281  1  0.73150687  0.19230032  0.74164044  1
  H  H282  1  0.95184415  0.35331777  0.64906628  1
  C  C283  1  0.61198504  0.05212387  0.60579845  1
  C  C284  1  0.60058868  0.13337702  0.50088280  1
  C  C285  1  0.60689325  0.13242438  0.70408162  1
  H  H286  1  0.60703846  0.39143072  0.54747628  1
  H  H287  1  0.69947708  0.43351813  0.53500953  1
  C  C288  1  0.69479502  0.14279730  0.69326085  1
  C  C289  1  0.92316876  0.23881636  0.55950200  1
  H  H290  1  0.56970608  0.15821876  0.74231200  1
  C  C291  1  0.51491968  0.37177989  0.65691307  1
  H  H292  1  0.57874094  0.01600647  0.57071429  1
  H  H293  1  0.79268021  0.02177789  0.53232567  1
  C  C294  1  0.99998223  0.35547599  0.53177888  1
  C  C295  1  0.99926334  0.42223157  0.50744160  1
  C  C296  1  0.99873111  0.32295717  0.67929852  1
  H  H297  1  0.99946959  0.16236465  0.59999299  1
  N  N298  1  0.99321493  0.21460452  0.59826203  1
  C  C299  1  0.52749961  0.17625333  0.50048943  1
  C  C300  1  0.81013012  0.42563549  0.93861246  1
  H  H301  1  0.77627562  0.26190284  0.86517936  1
  H  H302  1  0.81773400  0.48188216  0.93073597  1
  C  C303  1  0.78874692  0.30495339  0.90069437  1
  O  O304  1  0.78037616  0.46195347  0.80631424  1
  C  C305  1  0.79664534  0.37616744  0.88664624  1
  Cu  Cu306  1  0.64132962  0.31377482  0.77688357  1
  C  C307  1  0.77513904  0.39826804  0.81919689  1
  C  C308  1  0.77786617  0.20768204  0.98306304  1
  C  C309  1  0.79200498  0.28591856  0.96623815  1
  O  O310  1  0.78104690  0.01729754  0.80426796  1
  O  O311  1  0.80404038  0.16832506  0.94279807  1
  O  O312  1  0.68431455  0.22302441  0.78565963  1
  O  O313  1  0.75385610  0.35566264  0.77446306  1
  Cu  Cu314  1  0.89639165  0.15835452  0.77016087  1
  C  C315  1  0.99748451  0.04230955  0.93015770  1
  O  O316  1  0.52837125  0.28400846  0.76430640  1
  H  H317  1  0.98913218  0.09824475  0.93013506  1
  O  O318  1  0.98990553  0.11532518  0.81269425  1
  H  H319  1  0.69971434  0.03476215  0.91757634  1
  C  C320  1  0.99698580  0.00213677  0.98736831  1
  H  H321  1  0.96968672  0.40618823  0.98974465  1
  N  N322  1  0.83833315  0.81066344  0.10152720  1
  H  H323  1  0.57444982  0.64202795  0.14785245  1
  C  C324  1  0.86199847  0.93305808  0.13855930  1
  C  C325  1  0.74405239  0.90785229  0.03377655  1
  O  O326  1  0.67799530  0.73243195  0.14330386  1
  C  C327  1  0.62571544  0.77475458  0.15629361  1
  C  C328  1  0.86346516  0.86108356  0.15203031  1
  C  C329  1  0.87319095  0.97571414  0.19358821  1
  H  H330  1  0.71315159  0.88313163  0.07812292  1
  O  O331  1  0.64508565  0.83281242  0.18740691  1
  H  H332  1  0.85135878  0.95489979  0.08943557  1
  O  O333  1  0.93865434  0.67151638  0.18622923  1
  C  C334  1  0.88078547  0.83615074  0.21735527  1
  C  C335  1  0.81649833  0.87691094  0.00178785  1
  C  C336  1  0.87147048  0.82384622  0.03631439  1
  H  H337  1  0.85886268  0.76375742  0.11920132  1
  C  C338  1  0.53137146  0.75097147  0.14241215  1
  C  C339  1  0.96115993  0.51600903  0.00978452  1
  C  C340  1  0.51868309  0.68035696  0.14521397  1
  O  O341  1  0.93028092  0.79749267  0.00841733  1
  C  C342  1  0.62172003  0.99269481  0.02802082  1
  O  O343  1  0.82664337  0.57043193  0.04904046  1
  H  H344  1  0.97175770  0.63165873  0.03134004  1
  C  C345  1  0.86804205  0.52056503  0.03877812  1
  H  H346  1  0.88695913  0.78003060  0.22857395  1
  C  C347  1  0.54603421  0.96048684  0.01030664  1
  C  C348  1  0.99931238  0.58220148  0.01165854  1
  O  O349  1  0.91979862  0.78580542  0.34049926  1
  C  C350  1  0.58785226  0.65612818  0.30571509  1
  C  C351  1  0.61350750  0.58962368  0.28568207  1
  Cu  Cu352  1  0.82334414  0.73017602  0.33996078  1
  O  O353  1  0.57697759  0.91444160  0.29801103  1
  C  C354  1  0.91643234  0.85348898  0.33523494  1
  H  H355  1  0.68519885  0.58006430  0.28414637  1
  O  O356  1  0.91902388  0.89238516  0.38232829  1
  O  O357  1  0.63967644  0.76688265  0.34216816  1
  C  C358  1  0.65275101  0.70552474  0.32576726  1
  C  C359  1  0.55523174  0.53810895  0.26566207  1
  O  O360  1  0.72938463  0.67904241  0.32780684  1
  C  C361  1  0.89510600  0.95515085  0.25780632  1
  C  C362  1  0.89538278  0.88362513  0.26853314  1
  O  O363  1  0.67893385  0.96443461  0.46212945  1
  H  H364  1  0.52462843  0.99189660  0.41716407  1
  H  H365  1  0.90191356  0.99354119  0.29718035  1
  Cu  Cu366  1  0.65174722  0.83818013  0.27937426  1
  C  C367  1  0.81378794  0.96889065  0.82882622  1
  C  C368  1  0.79715606  0.95526666  0.90241941  1
  C  C369  1  0.73459648  0.99006046  0.93731647  1
  C  C370  1  0.81083168  0.84198069  0.81616126  1
  N  N371  1  0.84725081  0.90801303  0.79850357  1
  C  C372  1  0.85886752  0.78307328  0.79827169  1
  O  O373  1  0.59395414  0.81747426  0.95279614  1
  H  H374  1  0.70913897  0.88211958  0.87431643  1
  C  C375  1  0.75114629  0.71077084  0.85852926  1
  H  H376  1  0.54655995  0.91312659  0.98078503  1
  H  H377  1  0.72887446  0.65884952  0.87214816  1
  C  C378  1  0.63039537  0.76707385  0.92979490  1
  C  C379  1  0.71221561  0.77035408  0.88102546  1
  C  C380  1  0.73921842  0.83428604  0.85963542  1
  O  O381  1  0.60903547  0.70608361  0.94499223  1
  C  C382  1  0.83699364  0.90139179  0.93703103  1
  C  C383  1  0.82334217  0.71939995  0.81796926  1
  H  H384  1  0.89259133  0.87428611  0.91467198  1
  O  O385  1  0.83965418  0.59347643  0.82104110  1
  H  H386  1  0.87012586  0.90860240  0.75017029  1
  Cu  Cu387  1  0.88366635  0.51634781  0.78230401  1
  H  H388  1  0.91451055  0.78523990  0.76726994  1
  C  C389  1  0.86854796  0.65302326  0.79946541  1
  C  C390  1  0.70704948  0.96071027  0.99951486  1
  O  O391  1  0.92925359  0.65811119  0.76329486  1
