# generated using pymatgen
data_Cu2H11C24(NO5)2
_symmetry_space_group_name_H-M   'P 1'
_cell_length_a   18.72291065
_cell_length_b   16.04578339
_cell_length_c   21.58023074
_cell_angle_alpha   90.00000000
_cell_angle_beta   90.00000000
_cell_angle_gamma   90.00000000
_symmetry_Int_Tables_number   1
_chemical_formula_structural   Cu2H11C24(NO5)2
_chemical_formula_sum   'Cu16 H88 C192 N16 O80'
_cell_volume   6483.21424834
_cell_formula_units_Z   8
loop_
 _symmetry_equiv_pos_site_id
 _symmetry_equiv_pos_as_xyz
  1  'x, y, z'
loop_
 _atom_site_type_symbol
 _atom_site_label
 _atom_site_symmetry_multiplicity
 _atom_site_fract_x
 _atom_site_fract_y
 _atom_site_fract_z
 _atom_site_occupancy
  O  O0  1  0.35115046  0.18156795  0.18958583  1
  C  C1  1  0.46402963  0.24303757  0.12641605  1
  H  H2  1  0.46535808  0.24024097  0.17891646  1
  C  C3  1  0.33657720  0.20062846  0.13113713  1
  O  O4  1  0.10761586  0.16073230  0.02884927  1
  H  H5  1  0.26716633  0.06576755  0.01043876  1
  C  C6  1  0.40036864  0.22948640  0.09363630  1
  C  C7  1  0.04163210  0.40664863  0.05101216  1
  N  N8  1  0.13639818  0.44034505  0.15069612  1
  O  O9  1  0.42578047  0.02988509  0.22960333  1
  O  O10  1  0.04340693  0.39311583  0.21808167  1
  O  O11  1  0.28051987  0.20028272  0.10804691  1
  C  C12  1  0.38851476  0.23791264  0.02952564  1
  C  C13  1  0.45877482  0.04113031  0.11245128  1
  C  C14  1  0.47133734  0.04298463  0.18251623  1
  H  H15  1  0.16629349  0.40029311  0.17619871  1
  O  O16  1  0.09516501  0.12751109  0.12445077  1
  C  C17  1  0.07637480  0.12418046  0.07009220  1
  H  H18  1  0.09385852  0.43872981  0.04277009  1
  C  C19  1  0.06630245  0.40514162  0.16793662  1
  H  H20  1  0.33991946  0.22483936  0.00340066  1
  H  H21  1  0.41323246  0.43471041  0.24685978  1
  H  H22  1  0.34844402  0.01342260  0.12747808  1
  C  C23  1  0.37244199  0.03669179  0.02820523  1
  C  C24  1  0.01946929  0.39155489  0.11143495  1
  C  C25  1  0.39008498  0.02621303  0.09243374  1
  C  C26  1  0.44850750  0.27861273  0.29234333  1
  O  O27  1  0.43124278  0.47601057  0.40842319  1
  C  C28  1  0.29810239  0.42345732  0.36242087  1
  C  C29  1  0.22988186  0.39967054  0.34127068  1
  H  H30  1  0.33711563  0.37244785  0.37316749  1
  C  C31  1  0.49651161  0.34634690  0.27438361  1
  H  H32  1  0.12162643  0.43956987  0.31435177  1
  O  O33  1  0.40901940  0.07537269  0.37096489  1
  O  O34  1  0.46786171  0.20686391  0.30986475  1
  Cu  Cu35  1  0.40639371  0.11244167  0.29178515  1
  C  C36  1  0.21143045  0.30936753  0.32958491  1
  O  O37  1  0.15505531  0.28746268  0.30873389  1
  O  O38  1  0.26545520  0.25747066  0.33237102  1
  H  H39  1  0.41690572  0.11435787  0.48652025  1
  C  C40  1  0.17702084  0.45832848  0.32970052  1
  O  O41  1  0.38407336  0.29789619  0.28259869  1
  Cu  Cu42  1  0.31510671  0.21971325  0.26419650  1
  C  C43  1  0.40361144  0.00240848  0.39154479  1
  C  C44  1  0.41806722  0.04777936  0.49870198  1
  C  C45  1  0.46945288  0.42152243  0.25092021  1
  N  N46  1  0.44053748  0.07656541  0.61105083  1
  H  H47  1  0.39583777  0.09183040  0.63548866  1
  H  H48  1  0.21096964  0.49143414  0.64491379  1
  O  O49  1  0.47680578  0.21595045  0.60487653  1
  C  C50  1  0.42132773  0.02072160  0.55897853  1
  C  C51  1  0.48354924  0.14555182  0.59403286  1
  O  O52  1  0.39619768  0.22591838  0.89650073  1
  C  C53  1  0.45084942  0.24903947  0.99429705  1
  C  C54  1  0.44987469  0.23477868  0.92415927  1
  C  C55  1  0.02875606  0.40342826  0.93341509  1
  H  H56  1  0.41721747  0.07507467  0.94025426  1
  O  O57  1  0.08906215  0.42618252  0.93031387  1
  C  C58  1  0.00131921  0.38495022  0.99995506  1
  N  N59  1  0.30514138  0.02598043  0.99613390  1
  C  C60  1  0.42912014  0.06239045  0.99180877  1
  C  C61  1  0.06193685  0.65716802  0.15342753  1
  C  C62  1  0.47683061  0.68978347  0.07681843  1
  C  C63  1  0.38337433  0.62484267  0.00553950  1
  O  O64  1  0.30251387  0.65356961  0.22362071  1
  H  H65  1  0.11173524  0.77230817  0.18564737  1
  C  C66  1  0.06682302  0.57187754  0.14031646  1
  C  C67  1  0.11698440  0.70407312  0.18071973  1
  C  C68  1  0.24364176  0.70211017  0.21971611  1
  Cu  Cu69  1  0.37886483  0.67201557  0.17244643  1
  H  H70  1  0.23672978  0.54301134  0.19121816  1
  O  O71  1  0.43384609  0.57420561  0.19401170  1
  C  C72  1  0.18743760  0.57564161  0.18053706  1
  C  C73  1  0.17869012  0.66058589  0.19214393  1
  O  O74  1  0.21621718  0.93711837  0.04085309  1
  C  C75  1  0.45392976  0.63745679  0.02487458  1
  O  O76  1  0.43432846  0.72346643  0.11338537  1
  O  O77  1  0.24412463  0.77254362  0.23763724  1
  H  H78  1  0.33869715  0.65385927  0.02966766  1
  C  C79  1  0.26799362  0.94908048  0.01150540  1
  H  H80  1  0.02029304  0.54116083  0.11853568  1
  C  C81  1  0.12936059  0.52915697  0.15711101  1
  C  C82  1  0.49824526  0.56562897  0.21250807  1
  H  H83  1  0.39973177  0.84178195  0.43632752  1
  Cu  Cu84  1  0.46304772  0.91589202  0.29771122  1
  C  C85  1  0.06928822  0.58349934  0.42951797  1
  O  O86  1  0.39892959  0.94411030  0.35309507  1
  H  H87  1  0.27422433  0.63236670  0.36714608  1
  C  C88  1  0.38523264  0.52835120  0.39936297  1
  C  C89  1  0.40158365  0.89481142  0.47214651  1
  O  O90  1  0.39790238  0.60532244  0.41087639  1
  H  H91  1  0.18922139  0.56411336  0.44400886  1
  Cu  Cu92  1  0.44975921  0.66009662  0.47162533  1
  H  H93  1  0.14382942  0.63528607  0.29369867  1
  C  C94  1  0.26117795  0.56641240  0.36381167  1
  N  N95  1  0.13901552  0.60756853  0.33802709  1
  C  C96  1  0.31344559  0.50503788  0.37523350  1
  C  C97  1  0.07109103  0.59122024  0.35858887  1
  O  O98  1  0.47578214  0.79885310  0.33371517  1
  C  C99  1  0.13099389  0.57149209  0.46527284  1
  C  C100  1  0.19499056  0.54015910  0.34355859  1
  C  C101  1  0.40700961  0.97802471  0.45767575  1
  O  O102  1  0.01733423  0.58816783  0.32935941  1
  C  C103  1  0.00181977  0.59501480  0.45617520  1
  O  O104  1  0.49082153  0.75811224  0.42966070  1
  C  C105  1  0.40302485  0.87576121  0.53555910  1
  C  C106  1  0.25969097  0.70380153  0.72272741  1
  H  H107  1  0.41863386  0.91963212  0.62890684  1
  C  C108  1  0.41421993  0.93709840  0.57967159  1
  Cu  Cu109  1  0.44712607  0.69573158  0.65893243  1
  C  C110  1  0.08459036  0.81147069  0.70426815  1
  C  C111  1  0.25503408  0.62824263  0.68982517  1
  C  C112  1  0.14196028  0.74948379  0.69751034  1
  O  O113  1  0.40568001  0.78551992  0.61585714  1
  C  C114  1  0.13102094  0.67354639  0.66701331  1
  O  O115  1  0.09564129  0.87887678  0.73100577  1
  C  C116  1  0.20765821  0.76361116  0.72726062  1
  N  N117  1  0.18060132  0.53752888  0.62745347  1
  O  O118  1  0.38593923  0.67820771  0.72760441  1
  O  O119  1  0.02905423  0.79520434  0.67162969  1
  C  C120  1  0.39457815  0.79001350  0.55807699  1
  H  H121  1  0.07806891  0.65970289  0.64497390  1
  H  H122  1  0.05384669  0.56693253  0.60841344  1
  H  H123  1  0.29717824  0.58152465  0.68952006  1
  C  C124  1  0.18814111  0.61625793  0.66083777  1
  C  C125  1  0.12349350  0.56498487  0.52962495  1
  C  C126  1  0.05631726  0.56897411  0.55802940  1
  O  O127  1  0.47779879  0.59570832  0.62238251  1
  O  O128  1  0.38370503  0.72615462  0.52543894  1
  C  C129  1  0.33374264  0.72736985  0.74488325  1
  O  O130  1  0.24862176  0.54519317  0.53672511  1
  C  C131  1  0.19281477  0.54447635  0.56278444  1
  H  H132  1  0.37915511  0.68887154  0.87673523  1
  C  C133  1  0.37133696  0.58648936  0.94768811  1
  C  C134  1  0.42670018  0.54635872  0.91418225  1
  O  O135  1  0.19874506  0.64845437  0.96134161  1
  C  C136  1  0.47163929  0.81499110  0.88842092  1
  C  C137  1  0.35624564  0.74066713  0.90286008  1
  C  C138  1  0.39238696  0.81787396  0.90863808  1
  N  N139  1  0.30105285  0.58848166  0.91863716  1
  C  C140  1  0.35982166  0.88368369  0.94402486  1
  Cu  Cu141  1  0.02667843  0.93955901  0.77512338  1
  H  H142  1  0.38675537  0.94344447  0.94988835  1
  O  O143  1  0.06554914  0.88517398  0.84912024  1
  O  O144  1  0.02325551  0.88712687  0.94461119  1
  C  C145  1  0.29364336  0.73778798  0.93749968  1
  C  C146  1  0.25683967  0.65398640  0.93952132  1
  C  C147  1  0.49435415  0.79379864  0.82955370  1
  H  H148  1  0.01636513  0.76964332  0.78896198  1
  C  C149  1  0.49512745  0.55396677  0.93666670  1
  C  C150  1  0.02415779  0.85713987  0.89363129  1
  H  H151  1  0.45427158  0.76781290  0.79635941  1
  C  C152  1  0.26002201  0.79915882  0.97254449  1
  C  C153  1  0.29543157  0.87565315  0.97439416  1
  H  H154  1  0.41482820  0.51831487  0.86944653  1
  H  H155  1  0.49714923  0.85558336  0.98363295  1
  H  H156  1  0.27123978  0.53593421  0.91140848  1
  H  H157  1  0.20903969  0.78657911  0.99616853  1
  O  O158  1  0.34479930  0.78827097  0.77610912  1
  H  H159  1  0.21359099  0.82170292  0.75263522  1
  H  H160  1  0.66948966  0.17534822  0.13653264  1
  O  O161  1  0.53062456  0.06341080  0.19373864  1
  C  C162  1  0.71641459  0.21021921  0.11553451  1
  N  N163  1  0.58938286  0.27659553  0.12065529  1
  C  C164  1  0.63469983  0.33786423  0.09223766  1
  C  C165  1  0.78478001  0.17769672  0.12827393  1
  C  C166  1  0.77165821  0.09692942  0.16178514  1
  N  N167  1  0.83969732  0.05954523  0.16613782  1
  C  C168  1  0.70787108  0.29192013  0.09271084  1
  O  O169  1  0.71526414  0.06525876  0.17229827  1
  C  C170  1  0.77126854  0.33430751  0.07555882  1
  C  C171  1  0.51899188  0.05780079  0.07604526  1
  C  C172  1  0.83690255  0.29590736  0.08667595  1
  C  C173  1  0.85495988  0.03370106  0.05387740  1
  C  C174  1  0.51704004  0.26305386  0.02291286  1
  C  C175  1  0.52403735  0.26005588  0.08828625  1
  O  O176  1  0.62298770  0.40713039  0.07774896  1
  C  C177  1  0.85036021  0.21684329  0.11268146  1
  H  H178  1  0.57494433  0.05320885  0.09497635  1
  C  C179  1  0.51975850  0.48153377  0.23491145  1
  H  H180  1  0.90187611  0.18819924  0.12100143  1
  H  H181  1  0.94005641  0.34020362  0.17194914  1
  C  C182  1  0.88751444  0.05073317  0.11200886  1
  H  H183  1  0.70974804  0.37673547  0.20909879  1
  C  C184  1  0.91257309  0.33114817  0.07185671  1
  C  C185  1  0.96219752  0.07008608  0.11519524  1
  H  H186  1  0.58179624  0.29667441  0.16652295  1
  H  H187  1  0.76665631  0.39677890  0.05441954  1
  C  C188  1  0.95697209  0.34879985  0.12349642  1
  H  H189  1  0.83697766  0.00038772  0.18492183  1
  C  C190  1  0.93534224  0.34823085  0.01131396  1
  C  C191  1  0.50066366  0.05712886  0.01289998  1
  C  C192  1  0.99720497  0.09479570  0.06127243  1
  H  H193  1  0.80353804  0.00406330  0.04792612  1
  C  C194  1  0.59436961  0.47266137  0.23677056  1
  H  H195  1  0.98781877  0.07604788  0.16230003  1
  C  C196  1  0.89372154  0.05748290  0.00146695  1
  C  C197  1  0.96372694  0.09084188  0.00484756  1
  C  C198  1  0.67777943  0.24589674  0.44958783  1
  C  C199  1  0.70319217  0.31963333  0.47871253  1
  H  H200  1  0.64902030  0.18462091  0.36178917  1
  H  H201  1  0.68543083  0.08333998  0.42467322  1
  C  C202  1  0.77339616  0.45316377  0.46814958  1
  C  C203  1  0.73636380  0.37226060  0.37713192  1
  C  C204  1  0.57063417  0.33218715  0.27695418  1
  C  C205  1  0.67496092  0.23998531  0.38445156  1
  H  H206  1  0.76370285  0.42229328  0.35389542  1
  C  C207  1  0.70598358  0.30287650  0.34931246  1
  C  C208  1  0.64643125  0.09502159  0.45998140  1
  H  H209  1  0.58860148  0.26981731  0.29285709  1
  C  C210  1  0.73661009  0.37860495  0.44176452  1
  C  C211  1  0.69981849  0.29512130  0.27844370  1
  C  C212  1  0.61350147  0.02841154  0.48965126  1
  C  C213  1  0.63728532  0.17776617  0.48337657  1
  C  C214  1  0.61776137  0.39592141  0.25922145  1
  O  O215  1  0.69244820  0.22818920  0.25724623  1
  O  O216  1  0.80638671  0.49882383  0.43462440  1
  N  N217  1  0.69474834  0.38018958  0.25516727  1
  C  C218  1  0.70022727  0.41423365  0.61367108  1
  H  H219  1  0.74827376  0.38021893  0.62830994  1
  C  C220  1  0.64004292  0.42021901  0.65378139  1
  C  C221  1  0.58184999  0.19133759  0.52522815  1
  C  C222  1  0.64202676  0.36500708  0.70869091  1
  C  C223  1  0.58348415  0.47580622  0.64421262  1
  N  N224  1  0.76972247  0.45915245  0.53231818  1
  C  C225  1  0.69906129  0.46423266  0.56191750  1
  O  O226  1  0.69042763  0.30935541  0.70598057  1
  C  C227  1  0.54441857  0.12334328  0.54895105  1
  C  C228  1  0.56061491  0.03987309  0.53570902  1
  H  H229  1  0.56455886  0.25473620  0.53789705  1
  H  H230  1  0.69531625  0.33014356  0.52822731  1
  H  H231  1  0.53694546  0.47873689  0.67365378  1
  O  O232  1  0.59306466  0.36505866  0.74896735  1
  H  H233  1  0.87299259  0.33400735  0.83064601  1
  C  C234  1  0.78427421  0.38638764  0.88503519  1
  C  C235  1  0.90676312  0.43103298  0.89364585  1
  H  H236  1  0.71212445  0.44774109  0.94531487  1
  O  O237  1  0.59579900  0.06600719  0.79976570  1
  C  C238  1  0.85459431  0.38027080  0.86514817  1
  O  O239  1  0.70005984  0.12601828  0.80325627  1
  H  H240  1  0.89783733  0.33442187  0.97563551  1
  H  H241  1  0.80811654  0.04436837  0.78110485  1
  H  H242  1  0.99518733  0.11215766  0.96319906  1
  O  O243  1  0.75598195  0.28345852  0.81768706  1
  O  O244  1  0.89028153  0.08884931  0.90130472  1
  O  O245  1  0.53223709  0.06582659  0.91046121  1
  C  C246  1  0.73211437  0.33008267  0.86057640  1
  O  O247  1  0.66687055  0.32822483  0.87736350  1
  C  C248  1  0.85792058  0.05626824  0.94125191  1
  Cu  Cu249  1  0.59794573  0.38229894  0.83260259  1
  N  N250  1  0.97838862  0.39639610  0.88549004  1
  C  C251  1  0.66313995  0.06262267  0.79337660  1
  C  C252  1  0.55680968  0.06535298  0.96563937  1
  Cu  Cu253  1  0.71362794  0.03387373  0.95492394  1
  Cu  Cu254  1  0.55240798  0.14683169  0.84825842  1
  C  C255  1  0.76565105  0.44668470  0.92883403  1
  O  O256  1  0.62184449  0.07207938  0.97616708  1
  C  C257  1  0.89115983  0.49135744  0.93772003  1
  H  H258  1  0.56437305  0.27516510  0.99521728  1
  H  H259  1  0.99721919  0.41122085  0.84232133  1
  Cu  Cu260  1  0.70528791  0.22460933  0.75890361  1
  O  O261  1  0.54095366  0.46742124  0.85752382  1
  O  O262  1  0.80100704  0.00522380  0.93893058  1
  O  O263  1  0.51180333  0.23331008  0.89754153  1
  C  C264  1  0.72610075  0.88451497  0.19483979  1
  H  H265  1  0.55618398  0.90800475  0.13926352  1
  O  O266  1  0.99014981  0.77084440  0.16475236  1
  Cu  Cu267  1  0.86609056  0.70378656  0.05777916  1
  C  C268  1  0.76077455  0.85904367  0.14022126  1
  O  O269  1  0.87187088  0.81901704  0.09037037  1
  O  O270  1  0.86788752  0.85757840  0.18922655  1
  H  H271  1  0.63205882  0.52161753  0.22485309  1
  C  C272  1  0.65320765  0.89478339  0.19307635  1
  H  H273  1  0.56289385  0.82315403  0.02531240  1
  C  C274  1  0.61306932  0.89111472  0.13768932  1
  O  O275  1  0.84497876  0.59194821  0.03262824  1
  O  O276  1  0.54205274  0.69746377  0.08547501  1
  O  O277  1  0.75447769  0.60911958  0.22694170  1
  C  C278  1  0.64903881  0.87536500  0.08261532  1
  C  C279  1  0.72476620  0.86201991  0.08416448  1
  C  C280  1  0.83778871  0.84521110  0.13862737  1
  O  O281  1  0.53922212  0.62592438  0.21427116  1
  N  N282  1  0.60700404  0.86209020  0.02738607  1
  H  H283  1  0.75082990  0.85247073  0.03849634  1
  O  O284  1  0.67779410  0.68836495  0.18238358  1
  O  O285  1  0.93960927  0.66643187  0.11556180  1
  Cu  Cu286  1  0.59928665  0.66608099  0.14866023  1
  C  C287  1  0.70814515  0.65734963  0.23193110  1
  H  H288  1  0.75833514  0.88178315  0.23952492  1
  C  C289  1  0.99443455  0.70033321  0.13956451  1
  Cu  Cu290  1  0.91996297  0.77901577  0.22908105  1
  O  O291  1  0.54096092  0.88856659  0.24545468  1
  O  O292  1  0.73126613  0.57158293  0.00622128  1
  H  H293  1  0.95400365  0.61044713  0.42670534  1
  C  C294  1  0.78040092  0.85980100  0.38762216  1
  C  C295  1  0.72257142  0.66116301  0.34607136  1
  O  O296  1  0.95560644  0.77795489  0.37631231  1
  C  C297  1  0.85158292  0.84744240  0.40425194  1
  H  H298  1  0.61111609  0.72180173  0.46460646  1
  O  O299  1  0.64251750  0.90301157  0.29941467  1
  C  C300  1  0.69911395  0.67525312  0.40654451  1
  N  N301  1  0.66411748  0.93020289  0.42019294  1
  C  C302  1  0.51609948  0.77157660  0.37629170  1
  C  C303  1  0.67935996  0.68380976  0.29628049  1
  C  C304  1  0.63141223  0.71508850  0.41613844  1
  C  C305  1  0.73592540  0.90094365  0.42981409  1
  C  C306  1  0.76408159  0.92529868  0.48842672  1
  C  C307  1  0.61573989  0.72558858  0.30659056  1
  H  H308  1  0.63653145  0.89732173  0.38397300  1
  H  H309  1  0.76327127  0.84482215  0.33987558  1
  H  H310  1  0.77298931  0.62559325  0.33959036  1
  C  C311  1  0.58824608  0.74092810  0.36563110  1
  O  O312  1  0.86950985  0.78837665  0.30512851  1
  C  C313  1  0.87930609  0.87270270  0.46175495  1
  H  H314  1  0.78170899  0.60504631  0.44417080  1
  H  H315  1  0.87638676  0.66400864  0.46601521  1
  C  C316  1  0.89805475  0.80048067  0.35932440  1
  H  H317  1  0.57907548  0.75105415  0.27044798  1
  N  N318  1  0.74320671  0.64642051  0.45624397  1
  C  C319  1  0.61183375  0.89454864  0.25076923  1
  H  H320  1  0.93327804  0.86346331  0.47664082  1
  C  C321  1  0.61893634  0.93824055  0.47516910  1
  C  C322  1  0.87262439  0.65321773  0.51752859  1
  O  O323  1  0.54846951  0.75149272  0.71791006  1
  C  C324  1  0.58488655  0.52561538  0.59146326  1
  O  O325  1  0.91934394  0.93423813  0.58641664  1
  C  C326  1  0.85377837  0.64541348  0.71370219  1
  H  H327  1  0.96356592  0.58085658  0.64564378  1
  O  O328  1  0.68977503  0.73124894  0.53539819  1
  C  C329  1  0.92603373  0.61540580  0.61760147  1
  O  O330  1  0.52304258  0.62733848  0.53286035  1
  O  O331  1  0.90707222  0.85988622  0.70272780  1
  C  C332  1  0.85465911  0.94327884  0.56839860  1
  C  C333  1  0.92961053  0.61617630  0.55073543  1
  C  C334  1  0.80864153  0.67625443  0.54700181  1
  C  C335  1  0.64153474  0.52064597  0.54724759  1
  N  N336  1  0.91997974  0.66794433  0.74073609  1
  C  C337  1  0.86343649  0.64607928  0.64373628  1
  H  H338  1  0.74882926  0.68923487  0.63113500  1
  C  C339  1  0.80093452  0.67273097  0.61041932  1
  C  C340  1  0.83492103  0.91387520  0.50296881  1
  H  H341  1  0.72729849  0.95818144  0.51944307  1
  Cu  Cu342  1  0.96967501  0.86574272  0.63481797  1
  O  O343  1  0.79701388  0.64624578  0.73696177  1
  H  H344  1  0.95910810  0.68653175  0.70803977  1
  H  H345  1  0.80606610  0.78154347  0.73346949  1
  H  H346  1  0.80512070  0.50270494  0.55133803  1
  O  O347  1  0.80929487  0.97381586  0.60023862  1
  C  C348  1  0.88691664  0.91959898  0.73564530  1
  H  H349  1  0.64648773  0.56224611  0.50675556  1
  C  C350  1  0.52354413  0.58379185  0.58008219  1
  C  C351  1  0.77625698  0.84221879  0.74628006  1
  C  C352  1  0.99921837  0.59162246  0.52102143  1
  H  H353  1  0.53327319  0.98651637  0.55782023  1
  C  C354  1  0.80993863  0.91746329  0.74989143  1
  H  H355  1  0.68305263  0.72672147  0.71534788  1
  C  C356  1  0.73877879  0.69402718  0.51229697  1
  O  O357  1  0.58808688  0.88775016  0.50475250  1
  C  C358  1  0.56931981  0.79138533  0.82167620  1
  H  H359  1  0.67163064  0.81562667  0.85529563  1
  H  H360  1  0.90559574  0.80865636  0.96163338  1
  C  C361  1  0.77566503  0.98916062  0.77011303  1
  C  C362  1  0.55303277  0.51088909  0.90416483  1
  C  C363  1  0.85328350  0.72243606  0.89874128  1
  O  O364  1  0.61322079  0.51800213  0.93286033  1
  O  O365  1  0.69236073  0.92249813  0.95601984  1
  C  C366  1  0.79226724  0.71337538  0.94061017  1
  H  H367  1  0.81926086  0.62989356  0.83345426  1
  C  C368  1  0.63818136  0.88575737  0.97125842  1
  C  C369  1  0.66242903  0.90990583  0.76862269  1
  C  C370  1  0.96627457  0.79173662  0.87913435  1
  C  C371  1  0.59047966  0.84620602  0.92458669  1
  C  C372  1  0.61549767  0.82237645  0.86692265  1
  C  C373  1  0.91476784  0.70112522  0.80341313  1
  C  C374  1  0.90991445  0.77465922  0.91811248  1
  O  O375  1  0.73377907  0.69217370  0.91599531  1
  Cu  Cu376  1  0.67622457  0.60653491  0.93375227  1
  C  C377  1  0.85974840  0.67645073  0.84541909  1
  C  C378  1  0.96925331  0.75548245  0.82111275  1
  C  C379  1  0.70177423  0.98580402  0.77852939  1
  C  C380  1  0.59290003  0.76079138  0.75855808  1
  C  C381  1  0.51625302  0.83754899  0.93773012  1
  H  H382  1  0.60606218  0.90349648  0.77380884  1
  C  C383  1  0.70199944  0.83737626  0.75669347  1
  C  C384  1  0.79636254  0.56200933  0.99845886  1
  O  O385  1  0.80067470  0.73715780  0.99562336  1
  N  N386  1  0.66806641  0.75482578  0.75622934  1
  H  H387  1  0.93183971  0.52937683  0.96138074  1
  C  C388  1  0.81823093  0.50002521  0.95076971  1
  H  H389  1  0.56747043  0.60686665  0.99867215  1
  C  C390  1  0.50826869  0.60322583  0.98921295  1
  O  O391  1  0.93004623  0.96941181  0.76147103  1
