# generated using pymatgen
data_Zn3H13(C2O)16
_symmetry_space_group_name_H-M   'P 1'
_cell_length_a   23.69835335
_cell_length_b   17.67457925
_cell_length_c   22.18679797
_cell_angle_alpha   90.00000000
_cell_angle_beta   90.00000000
_cell_angle_gamma   90.00000000
_symmetry_Int_Tables_number   1
_chemical_formula_structural   Zn3H13(C2O)16
_chemical_formula_sum   'Zn24 H104 C256 O128'
_cell_volume   9293.12724200
_cell_formula_units_Z   8
loop_
 _symmetry_equiv_pos_site_id
 _symmetry_equiv_pos_as_xyz
  1  'x, y, z'
loop_
 _atom_site_type_symbol
 _atom_site_label
 _atom_site_symmetry_multiplicity
 _atom_site_fract_x
 _atom_site_fract_y
 _atom_site_fract_z
 _atom_site_occupancy
  H  H0  1  0.14648264  0.11479885  0.13392743  1
  C  C1  1  0.21012839  0.32247668  0.34461757  1
  O  O2  1  0.04741607  0.48925039  0.29297358  1
  Zn  Zn3  1  0.23341722  0.38387276  0.49340541  1
  O  O4  1  0.10887921  0.10552390  0.11618900  1
  C  C5  1  0.14250610  0.36125052  0.14388135  1
  O  O6  1  0.02294370  0.48726702  0.48579968  1
  H  H7  1  0.17827119  0.23815652  0.44512307  1
  C  C8  1  0.07979039  0.37377770  0.13512225  1
  O  O9  1  0.20925877  0.25764759  0.33468401  1
  H  H10  1  0.23731175  0.41494552  0.03214649  1
  O  O11  1  0.04979839  0.32246618  0.14853386  1
  C  C12  1  0.17307087  0.46885256  0.46251738  1
  H  H13  1  0.13828188  0.23965567  0.15726346  1
  C  C14  1  0.17739685  0.42374490  0.13871190  1
  C  C15  1  0.21339748  0.43452882  0.41288370  1
  C  C16  1  0.01630231  0.03277358  0.06925067  1
  C  C17  1  0.19182689  0.29618660  0.45576465  1
  C  C18  1  0.16467439  0.29080885  0.15746016  1
  H  H19  1  0.02496009  0.22892345  0.43448814  1
  C  C20  1  0.21141654  0.35218713  0.40539073  1
  O  O21  1  0.10286821  0.13751299  0.42945654  1
  O  O22  1  0.06745828  0.43643720  0.11026369  1
  C  C23  1  0.06537059  0.09205255  0.43493354  1
  C  C24  1  0.00721397  0.11175935  0.45171686  1
  H  H25  1  0.11887642  0.01597155  0.43271507  1
  O  O26  1  0.23364856  0.10443350  0.45955276  1
  O  O27  1  0.21572967  0.14792185  0.17120131  1
  C  C28  1  0.23516890  0.41598927  0.15411540  1
  O  O29  1  0.19932119  0.38175457  0.29890211  1
  H  H30  1  0.17731246  0.35298788  0.26977741  1
  H  H31  1  0.23305859  0.46957575  0.37591252  1
  H  H32  1  0.02314500  0.09429359  0.07080459  1
  H  H33  1  0.16228637  0.48237939  0.12952196  1
  O  O34  1  0.07689954  0.01280339  0.43483658  1
  C  C35  1  0.22295731  0.28523022  0.16691020  1
  H  H36  1  0.24258785  0.10447001  0.17901560  1
  C  C37  1  0.10212798  0.02834988  0.13132060  1
  O  O38  1  0.15068279  0.23274446  0.58028714  1
  O  O39  1  0.15541337  0.13660354  0.88178091  1
  C  C40  1  0.00299894  0.06175837  0.72783731  1
  C  C41  1  0.05065041  0.08596680  0.68517487  1
  O  O42  1  0.12342575  0.22400239  0.82371267  1
  Zn  Zn43  1  0.23515529  0.20335003  0.60196980  1
  C  C44  1  0.12616868  0.27966111  0.54640074  1
  Zn  Zn45  1  0.06862208  0.16752800  0.75373483  1
  O  O46  1  0.23316540  0.10367530  0.65213633  1
  H  H47  1  0.19014289  0.27189700  0.75075780  1
  C  C48  1  0.16443118  0.18723230  0.84586143  1
  H  H49  1  0.10515565  0.42952921  0.53209637  1
  C  C50  1  0.22518577  0.20268502  0.82418602  1
  O  O51  1  0.00155143  0.29085468  0.94499046  1
  C  C52  1  0.14411809  0.41247480  0.50617889  1
  O  O53  1  0.07648278  0.07949397  0.64046894  1
  C  C54  1  0.22782058  0.24999162  0.77217387  1
  H  H55  1  0.01867042  0.21300226  0.86088179  1
  C  C56  1  0.23315647  0.01492364  0.73778478  1
  C  C57  1  0.15807241  0.33185410  0.50477697  1
  H  H58  1  0.15610743  0.03583474  0.68377056  1
  O  O59  1  0.07475104  0.28902964  0.54598688  1
  H  H60  1  0.02767642  0.23959038  0.60129397  1
  O  O61  1  0.24845849  0.30966095  0.65641235  1
  O  O62  1  0.03826208  0.34807078  0.66670784  1
  C  C63  1  0.17723311  0.00215930  0.72037897  1
  H  H64  1  0.22141184  0.51067836  0.05785876  1
  O  O65  1  0.13977754  0.70094625  0.07247334  1
  O  O66  1  0.05719933  0.75506907  0.37877493  1
  O  O67  1  0.14210730  0.58720392  0.11088060  1
  H  H68  1  0.16432091  0.68132322  0.33212437  1
  C  C69  1  0.08631067  0.70134923  0.38766033  1
  H  H70  1  0.08068936  0.87788176  0.13221463  1
  C  C71  1  0.22095803  0.63126286  0.04842425  1
  H  H72  1  0.23221131  0.75424393  0.04201000  1
  C  C73  1  0.16194602  0.64052808  0.07731399  1
  C  C74  1  0.13972601  0.66050545  0.37147820  1
  C  C75  1  0.14198660  0.53414297  0.43749334  1
  C  C76  1  0.00435708  0.87287246  0.07578952  1
  C  C77  1  0.04844030  0.90828075  0.10788487  1
  Zn  Zn78  1  0.07172062  0.60741906  0.44126545  1
  Zn  Zn79  1  0.06228574  0.56034131  0.13604517  1
  C  C80  1  0.15594579  0.58828076  0.39908590  1
  O  O81  1  0.04402529  0.58220381  0.22747477  1
  O  O82  1  0.21518546  0.70248549  0.22629489  1
  H  H83  1  0.20376899  0.56117685  0.20030040  1
  C  C84  1  0.02123657  0.52806705  0.25838598  1
  C  C85  1  0.24527362  0.55978884  0.04217736  1
  C  C86  1  0.05242204  0.98500554  0.10316820  1
  O  O87  1  0.13614537  0.99432898  0.16122753  1
  C  C88  1  0.24983354  0.69836487  0.03415626  1
  C  C89  1  0.24862494  0.55422421  0.18456805  1
  H  H90  1  0.04390774  0.95025092  0.81821596  1
  C  C91  1  0.04203852  0.91960267  0.77577434  1
  C  C92  1  0.16894756  0.90649253  0.80105434  1
  C  C93  1  0.08768411  0.91791224  0.73534152  1
  C  C94  1  0.02635975  0.82723194  0.59110013  1
  H  H95  1  0.11511293  0.87870656  0.64706862  1
  C  C96  1  0.14629859  0.94668985  0.75132937  1
  C  C97  1  0.08015862  0.88670748  0.67643652  1
  H  H98  1  0.14258904  0.86837417  0.82736403  1
  C  C99  1  0.02847129  0.86172278  0.65740986  1
  O  O100  1  0.06989079  0.81658482  0.56725784  1
  O  O101  1  0.24167133  0.52683257  0.60693653  1
  C  C102  1  0.22358181  0.91863700  0.81664559  1
  O  O103  1  0.23432346  0.82956182  0.89523163  1
  H  H104  1  0.01376454  0.54910819  0.96960301  1
  C  C105  1  0.38243729  0.02690347  0.37904571  1
  H  H106  1  0.30947524  0.33967617  0.17209938  1
  H  H107  1  0.29021063  0.03694076  0.38300599  1
  O  O108  1  0.41760232  0.41713837  0.28007535  1
  C  C109  1  0.43322794  0.04519637  0.40808362  1
  H  H110  1  0.32856394  0.04183361  0.27039072  1
  C  C111  1  0.26211801  0.34541363  0.16587871  1
  C  C112  1  0.33100552  0.09326563  0.45589575  1
  C  C113  1  0.43193132  0.08146294  0.46343703  1
  O  O114  1  0.30093148  0.20130881  0.18374273  1
  H  H115  1  0.34451155  0.44388532  0.10900303  1
  C  C116  1  0.33029586  0.05264311  0.40177660  1
  O  O117  1  0.28399490  0.01363058  0.17815081  1
  H  H118  1  0.47565005  0.02255938  0.39154432  1
  O  O119  1  0.26366571  0.26845300  0.02598677  1
  C  C120  1  0.27725150  0.11887431  0.48467279  1
  O  O121  1  0.33934897  0.44999435  0.47279112  1
  C  C122  1  0.25263253  0.21008564  0.17629235  1
  C  C123  1  0.42618530  0.47339557  0.26662809  1
  C  C124  1  0.38202795  0.11118873  0.48525088  1
  C  C125  1  0.27457385  0.20747750  0.00481650  1
  C  C126  1  0.28104678  0.40623445  0.01746954  1
  C  C127  1  0.27101905  0.48671838  0.16068861  1
  C  C128  1  0.32691579  0.49064220  0.13496916  1
  C  C129  1  0.31415180  0.46906760  0.00016852  1
  C  C130  1  0.30287079  0.33442492  0.00837779  1
  C  C131  1  0.48734357  0.08897007  0.49732197  1
  H  H132  1  0.41038209  0.14953646  0.75968974  1
  O  O133  1  0.48229406  0.11856353  0.55099761  1
  C  C134  1  0.37189682  0.13085500  0.84731900  1
  C  C135  1  0.41458359  0.12101339  0.80339601  1
  Zn  Zn136  1  0.35465567  0.45044748  0.74076999  1
  C  C137  1  0.33276538  0.23345937  0.77377835  1
  O  O138  1  0.46471292  0.43068356  0.90953169  1
  C  C139  1  0.32823960  0.18908920  0.82549731  1
  H  H140  1  0.27011033  0.14032668  0.89172963  1
  C  C141  1  0.45825214  0.06745960  0.80835407  1
  H  H142  1  0.37306090  0.24084902  0.75109812  1
  C  C143  1  0.49698172  0.38026490  0.68962495  1
  O  O144  1  0.46060022  0.30602350  0.91742211  1
  C  C145  1  0.27322086  0.17358065  0.84974531  1
  H  H146  1  0.33967531  0.09433424  0.93549465  1
  C  C147  1  0.28207910  0.26513515  0.75239817  1
  C  C148  1  0.44079326  0.37295420  0.92434724  1
  C  C149  1  0.38417370  0.38683572  0.95818513  1
  O  O150  1  0.49335235  0.10667614  0.71118699  1
  C  C151  1  0.43321534  0.39668462  0.60008697  1
  C  C152  1  0.37394363  0.08866956  0.89993202  1
  O  O153  1  0.32855448  0.35015865  0.68725627  1
  C  C154  1  0.35375444  0.32264831  0.97804553  1
  C  C155  1  0.28605364  0.31112419  0.69422775  1
  C  C156  1  0.35996667  0.40658659  0.51078273  1
  O  O157  1  0.46943760  0.32341305  0.70083118  1
  C  C158  1  0.46030487  0.02663385  0.86144666  1
  H  H159  1  0.37113493  0.26577603  0.97336118  1
  O  O160  1  0.28240919  0.16791311  0.52791267  1
  O  O161  1  0.28437458  0.14680796  0.98565403  1
  H  H162  1  0.37974177  0.14015547  0.52887088  1
  C  C163  1  0.41804859  0.03502165  0.90534553  1
  C  C164  1  0.47878374  0.42546984  0.63368453  1
  C  C165  1  0.26111173  0.07645415  0.69885693  1
  O  O166  1  0.30943232  0.08902989  0.70849722  1
  H  H167  1  0.41446616  0.34175615  0.61009198  1
  C  C168  1  0.41142811  0.43315876  0.55049694  1
  C  C169  1  0.36696709  0.45895053  0.96884551  1
  O  O170  1  0.34040119  0.34386070  0.52531829  1
  H  H171  1  0.36365241  0.67130003  0.16350111  1
  C  C172  1  0.41719391  0.90204894  0.32825923  1
  C  C173  1  0.30056371  0.68963249  0.00595152  1
  C  C174  1  0.38244237  0.87110269  0.22937469  1
  C  C175  1  0.25838161  0.69036619  0.20299759  1
  C  C176  1  0.38529639  0.97061368  0.32753651  1
  C  C177  1  0.35998733  0.55398058  0.13433371  1
  C  C178  1  0.33902255  0.61985072  0.16074286  1
  C  C179  1  0.45276807  0.78494675  0.27534361  1
  H  H180  1  0.38046242  0.83112733  0.18953923  1
  Zn  Zn181  1  0.36968424  0.90043376  0.05683216  1
  C  C182  1  0.41678283  0.85599636  0.27852026  1
  O  O183  1  0.44162657  0.50439853  0.08500950  1
  C  C184  1  0.41809179  0.56282998  0.10094773  1
  C  C185  1  0.34892513  0.93705560  0.22923322  1
  O  O186  1  0.29632177  0.75179973  0.18783771  1
  O  O187  1  0.44480480  0.86794462  0.11454625  1
  C  C188  1  0.28391747  0.61700573  0.18105712  1
  O  O189  1  0.30898379  0.90987084  0.13186163  1
  O  O190  1  0.44209986  0.62708810  0.10122869  1
  O  O191  1  0.44257564  0.73690001  0.23545334  1
  H  H192  1  0.43801575  0.88946810  0.37232863  1
  O  O193  1  0.32667094  0.82206951  0.00622181  1
  C  C194  1  0.49555995  0.85280583  0.11461049  1
  H  H195  1  0.26965818  0.79225271  0.18727062  1
  Zn  Zn196  1  0.49378383  0.68646522  0.16515145  1
  O  O197  1  0.48803890  0.77382838  0.31693404  1
  O  O198  1  0.38833262  0.99103238  0.00242277  1
  C  C199  1  0.29630023  0.55079119  0.01091420  1
  C  C200  1  0.31027147  0.95491231  0.17817152  1
  C  C201  1  0.35312390  0.98887164  0.27651250  1
  H  H202  1  0.49233600  0.98184489  0.86432382  1
  H  H203  1  0.47099670  0.64218058  0.65309249  1
  H  H204  1  0.41442521  0.53861621  0.50319738  1
  O  O205  1  0.38195176  0.74618689  0.95767976  1
  H  H206  1  0.32779697  0.85241362  0.89542056  1
  O  O207  1  0.45677215  0.93002968  0.95713098  1
  H  H208  1  0.36482541  0.61447096  0.96653435  1
  O  O209  1  0.43852679  0.58048998  0.73913693  1
  C  C210  1  0.49496437  0.61169978  0.56264324  1
  H  H211  1  0.39427829  0.50678166  0.95149687  1
  O  O212  1  0.31202867  0.89852386  0.87211930  1
  C  C213  1  0.47830949  0.53051155  0.57517526  1
  C  C214  1  0.25608909  0.97210572  0.78384232  1
  C  C215  1  0.35786650  0.52901060  0.81170681  1
  C  C216  1  0.40067543  0.55067391  0.76368740  1
  C  C217  1  0.27550105  0.50329849  0.63129405  1
  C  C218  1  0.49004816  0.66153040  0.61096871  1
  O  O219  1  0.32017275  0.54588807  0.84526803  1
  C  C220  1  0.25286130  0.87749643  0.86521464  1
  C  C221  1  0.42456119  0.98467176  0.95834553  1
  C  C222  1  0.43438076  0.50432869  0.53793762  1
  H  H223  1  0.29980469  0.97877655  0.79382233  1
  C  C224  1  0.34096074  0.75644008  0.98844577  1
  C  C225  1  0.32343005  0.61729159  0.99262298  1
  O  O226  1  0.67111378  0.31548164  0.39381754  1
  O  O227  1  0.73059921  0.15512943  0.28636517  1
  C  C228  1  0.61217309  0.39600280  0.33307740  1
  O  O229  1  0.58834613  0.27514609  0.36177908  1
  C  C230  1  0.62535514  0.32154230  0.36566358  1
  C  C231  1  0.64714283  0.45818113  0.33878754  1
  C  C232  1  0.56848867  0.39906834  0.29085444  1
  C  C233  1  0.71220465  0.04408718  0.35021690  1
  O  O234  1  0.61951615  0.35133811  0.03184752  1
  C  C235  1  0.71270912  0.02879899  0.41051200  1
  H  H236  1  0.68759647  0.44993391  0.36915616  1
  H  H237  1  0.54278128  0.35041080  0.28044177  1
  C  C238  1  0.55989988  0.46589140  0.25972550  1
  C  C239  1  0.66416151  0.37284169  0.01404885  1
  H  H240  1  0.72677638  0.07167029  0.44476921  1
  H  H241  1  0.70371132  0.00571990  0.25769071  1
  C  C242  1  0.73070912  0.12953736  0.33577083  1
  H  H243  1  0.52388683  0.47022312  0.22617042  1
  O  O244  1  0.74797885  0.16738536  0.38080487  1
  O  O245  1  0.53818589  0.04334818  0.15422394  1
  O  O246  1  0.53121948  0.07175273  0.47474641  1
  C  C247  1  0.72164200  0.36222634  0.83535733  1
  C  C248  1  0.64348413  0.36730920  0.55663057  1
  C  C249  1  0.71632170  0.47013007  0.67025933  1
  Zn  Zn250  1  0.69397456  0.48360738  0.98696480  1
  H  H251  1  0.73917321  0.30753784  0.83817764  1
  H  H252  1  0.60130736  0.38641098  0.55456633  1
  O  O253  1  0.67143431  0.21049939  0.75947464  1
  C  C254  1  0.50142925  0.06947682  0.75932101  1
  C  C255  1  0.69606997  0.39898794  0.68835108  1
  Zn  Zn256  1  0.61749671  0.36078414  0.71368565  1
  C  C257  1  0.60156732  0.24051877  0.59106276  1
  H  H258  1  0.71156064  0.20252547  0.59477575  1
  C  C259  1  0.66460813  0.37099459  0.85695521  1
  C  C260  1  0.59633613  0.17918498  0.91427192  1
  Zn  Zn261  1  0.55442132  0.28613225  0.90522524  1
  C  C262  1  0.67748989  0.26808092  0.73300538  1
  O  O263  1  0.61079238  0.17357126  0.60773580  1
  Zn  Zn264  1  0.53516709  0.10779055  0.62605210  1
  O  O265  1  0.54372753  0.02620196  0.76651510  1
  C  C266  1  0.68963379  0.41536948  0.54207158  1
  C  C267  1  0.70392025  0.26166391  0.57965889  1
  O  O268  1  0.53361804  0.40565972  0.72533543  1
  C  C269  1  0.65031357  0.29397151  0.57414038  1
  C  C270  1  0.64274025  0.22974325  0.88600069  1
  C  C271  1  0.63664529  0.44290388  0.84990567  1
  C  C272  1  0.71422631  0.32419089  0.70268959  1
  H  H273  1  0.59272058  0.45581510  0.86230039  1
  O  O274  1  0.58404112  0.12256115  0.93846364  1
  O  O275  1  0.55347688  0.26457692  0.59291502  1
  C  C276  1  0.63508711  0.30749839  0.87752034  1
  H  H277  1  0.68660174  0.20783693  0.87782917  1
  C  C278  1  0.67768389  0.49013958  0.51467398  1
  C  C279  1  0.74385651  0.38381059  0.54690921  1
  C  C280  1  0.74933252  0.30774653  0.56460916  1
  C  C281  1  0.73124090  0.49049205  0.80890077  1
  C  C282  1  0.67353360  0.49558406  0.82636553  1
  C  C283  1  0.50780014  0.49169473  0.62176106  1
  C  C284  1  0.72143790  0.36796296  0.98582798  1
  O  O285  1  0.57453402  0.79584904  0.42724150  1
  O  O286  1  0.51694124  0.79504447  0.13758510  1
  H  H287  1  0.66719910  0.84112551  0.40380023  1
  C  C288  1  0.53819234  0.91319222  0.09758865  1
  O  O289  1  0.58799848  0.66466365  0.24490205  1
  C  C290  1  0.52666642  0.99496834  0.12136078  1
  C  C291  1  0.58725586  0.89303330  0.05925309  1
  C  C292  1  0.69613661  0.95593210  0.42726617  1
  O  O293  1  0.65445674  0.79634761  0.29743880  1
  Zn  Zn294  1  0.57283867  0.74764054  0.31887993  1
  O  O295  1  0.66893456  0.88572333  0.22665670  1
  C  C296  1  0.59194102  0.53125277  0.26917572  1
  Zn  Zn297  1  0.61526253  0.89011698  0.14855854  1
  C  C298  1  0.69854313  0.99140957  0.30617142  1
  C  C299  1  0.56160652  0.73117937  0.44073659  1
  H  H300  1  0.66688123  0.57389194  0.30994678  1
  O  O301  1  0.56155627  0.67875512  0.40473532  1
  Zn  Zn302  1  0.54461988  0.98990973  0.02571191  1
  H  H303  1  0.52313863  0.59702446  0.46802789  1
  Zn  Zn304  1  0.68943763  0.59037484  0.46289153  1
  C  C305  1  0.57285431  0.59863875  0.23324902  1
  C  C306  1  0.68274754  0.91939948  0.32579042  1
  C  C307  1  0.66678460  0.86227679  0.27931312  1
  C  C308  1  0.67912287  0.89859725  0.38723854  1
  H  H309  1  0.63663750  0.75324757  0.07791297  1
  C  C310  1  0.62473716  0.76697332  0.03044358  1
  C  C311  1  0.70384190  0.92752314  0.49243698  1
  C  C312  1  0.59912420  0.83461185  0.01222007  1
  O  O313  1  0.67233352  0.63285088  0.06478433  1
  C  C314  1  0.63778371  0.52737112  0.30838591  1
  O  O315  1  0.72548998  0.65635203  0.39096696  1
  O  O316  1  0.53736896  0.58854220  0.19123998  1
  H  H317  1  0.74240649  0.63424756  0.16478694  1
  H  H318  1  0.74416005  0.74589676  0.30352455  1
  O  O319  1  0.72784807  0.95577805  0.06327252  1
  C  C320  1  0.66836965  0.64355340  0.01210417  1
  O  O321  1  0.65627349  0.71873925  0.61984914  1
  C  C322  1  0.53184569  0.76301515  0.54794561  1
  O  O323  1  0.56487784  0.86552893  0.82246121  1
  C  C324  1  0.65839240  0.95621687  0.52660891  1
  O  O325  1  0.60193952  0.64582876  0.67312346  1
  C  C326  1  0.60488485  0.79730948  0.90725315  1
  H  H327  1  0.64488649  0.68771500  0.89166416  1
  H  H328  1  0.56753385  0.90161469  0.93561070  1
  C  C329  1  0.59578616  0.81254830  0.84164905  1
  C  C330  1  0.69604887  0.60044553  0.64905446  1
  O  O331  1  0.61648888  0.76447297  0.80708312  1
  C  C332  1  0.63217662  0.73119670  0.92481495  1
  C  C333  1  0.70818091  0.89681763  0.61182254  1
  C  C334  1  0.58857874  0.85017959  0.94998186  1
  C  C335  1  0.51757678  0.63532178  0.50585230  1
  C  C336  1  0.63825732  0.54292576  0.52229825  1
  Zn  Zn337  1  0.57309143  0.67819936  0.75724134  1
  C  C338  1  0.66154224  0.93517944  0.58598105  1
  C  C339  1  0.65161831  0.57341804  0.80798584  1
  C  C340  1  0.63829464  0.71624477  0.98571494  1
  H  H341  1  0.70926059  0.87930470  0.65898608  1
  O  O342  1  0.61709827  0.94606082  0.68045789  1
  H  H343  1  0.60104280  0.54686431  0.55316628  1
  Zn  Zn344  1  0.55826891  0.90565655  0.73679319  1
  C  C345  1  0.51250273  0.77542036  0.66246196  1
  O  O346  1  0.69194848  0.60308914  0.97237593  1
  O  O347  1  0.68025718  0.61995128  0.78440847  1
  C  C348  1  0.64941170  0.66175521  0.64682634  1
  O  O349  1  0.59929674  0.59043637  0.81965110  1
  C  C350  1  0.61255775  0.96187984  0.62502904  1
  O  O351  1  0.51580806  0.84725098  0.66348268  1
  H  H352  1  0.54480931  0.82576136  0.54050563  1
  O  O353  1  0.50214166  0.74070664  0.71059132  1
  C  C354  1  0.53730268  0.71245524  0.50225482  1
  C  C355  1  0.51165424  0.73455638  0.60271481  1
  H  H356  1  0.54307559  0.50849653  0.65364834  1
  C  C357  1  0.67761993  0.53291138  0.66946520  1
  H  H358  1  0.63239196  0.53080907  0.68332098  1
  H  H359  1  0.62337009  0.99159191  0.50775005  1
  O  O360  1  0.57171098  0.99833809  0.60446365  1
  O  O361  1  0.90092237  0.28855611  0.29785592  1
  C  C362  1  0.86499554  0.33474948  0.28560893  1
  C  C363  1  0.93820630  0.21101987  0.45792642  1
  O  O364  1  0.76636641  0.45016643  0.36563981  1
  C  C365  1  0.96756521  0.05721353  0.46634766  1
  H  H366  1  0.84464955  0.25394723  0.41734894  1
  C  C367  1  0.84971925  0.46057942  0.23274238  1
  C  C368  1  0.89657654  0.15699363  0.47228410  1
  C  C369  1  0.93709942  0.42857881  0.45366678  1
  H  H370  1  0.96956497  0.39746058  0.30268838  1
  C  C371  1  0.84775084  0.38306607  0.41447230  1
  C  C372  1  0.92108658  0.29430281  0.45308573  1
  C  C373  1  0.86930849  0.30622608  0.42377426  1
  H  H374  1  0.80708905  0.44023907  0.21785741  1
  C  C375  1  0.88371813  0.41286776  0.26305001  1
  C  C376  1  0.86635927  0.02157832  0.47935825  1
  Zn  Zn377  1  0.94831853  0.40540994  0.01539040  1
  C  C378  1  0.97756479  0.49774460  0.46008853  1
  C  C379  1  0.79318228  0.39768255  0.38372435  1
  C  C380  1  0.94004939  0.43237967  0.27434812  1
  H  H381  1  0.85299603  0.17400024  0.48043192  1
  C  C382  1  0.95688673  0.35774694  0.46817374  1
  C  C383  1  0.91166313  0.08142818  0.47422350  1
  H  H384  1  0.94392245  0.02932578  0.01085095  1
  C  C385  1  0.88473749  0.44305129  0.42822915  1
  C  C386  1  0.99294119  0.18847995  0.44716659  1
  O  O387  1  0.81349992  0.31620470  0.28007047  1
  Zn  Zn388  1  0.76438890  0.28745817  0.36404494  1
  O  O389  1  0.81774058  0.04036617  0.46912820  1
  O  O390  1  0.92751225  0.27783957  0.00000962  1
  H  H391  1  0.99646378  0.34891344  0.49209651  1
  H  H392  1  0.89957376  0.26765505  0.74052302  1
  C  C393  1  0.87705412  0.09922429  0.88624725  1
  C  C394  1  0.81166945  0.40560018  0.77952839  1
  C  C395  1  0.91857884  0.23046872  0.70674768  1
  O  O396  1  0.96722075  0.37295532  0.72838991  1
  C  C397  1  0.94156848  0.19216570  0.91277863  1
  O  O398  1  0.81488172  0.21252524  0.58696436  1
  H  H399  1  0.80495098  0.43411842  0.66084973  1
  C  C400  1  0.82389961  0.05461067  0.90100566  1
  H  H401  1  0.90147053  0.02986065  0.80804238  1
  C  C402  1  0.99770803  0.10734128  0.77841720  1
  O  O403  1  0.79395779  0.07307819  0.94158728  1
  C  C404  1  0.92482720  0.11783577  0.64503820  1
  C  C405  1  0.96933387  0.14411981  0.61130857  1
  C  C406  1  0.96848681  0.25432967  0.67567873  1
  C  C407  1  0.89051714  0.15649737  0.92655970  1
  C  C408  1  0.99360768  0.33043660  0.68897394  1
  O  O409  1  0.85132294  0.32611519  0.55312637  1
  H  H410  1  0.86457721  0.13384781  0.71293311  1
  C  C411  1  0.90088301  0.15888655  0.69173092  1
  H  H412  1  0.78286883  0.41585041  0.53491795  1
  H  H413  1  0.86266126  0.17443201  0.96646973  1
  C  C414  1  0.99374415  0.21221163  0.62896953  1
  C  C415  1  0.91160366  0.07758694  0.83927046  1
  C  C416  1  0.75405379  0.41720505  0.80993810  1
  O  O417  1  0.82818029  0.34046744  0.77913926  1
  C  C418  1  0.98025844  0.18029981  0.86795864  1
  Zn  Zn419  1  0.91556664  0.46488839  0.70586728  1
  C  C420  1  0.80708974  0.27255411  0.56606822  1
  H  H421  1  0.98992546  0.10800525  0.57964852  1
  H  H422  1  0.88386735  0.29789906  0.56082235  1
  C  C423  1  0.77393377  0.47904509  0.65301864  1
  C  C424  1  0.96355341  0.11745107  0.83015159  1
  O  O425  1  0.84147182  0.46241089  0.76732578  1
  H  H426  1  0.75973442  0.31167162  0.70001738  1
  C  C427  1  0.95974169  0.25527781  0.95772099  1
  O  O428  1  0.76815868  0.34574281  0.97722412  1
  C  C429  1  0.90590446  0.03185814  0.63923210  1
  O  O430  1  0.86515564  0.01164530  0.66891932  1
  H  H431  1  0.97301637  0.01522543  0.71525007  1
  O  O432  1  0.88354779  0.81405998  0.15561491  1
  C  C433  1  0.82764295  0.58309608  0.18472930  1
  H  H434  1  0.75813568  0.66986950  0.08710942  1
  O  O435  1  0.89851006  0.62549244  0.07918231  1
  C  C436  1  0.94204770  0.58865243  0.06951617  1
  C  C437  1  0.79110982  0.62350635  0.16052065  1
  O  O438  1  0.96051429  0.55995276  0.44638078  1
  O  O439  1  0.78212995  0.69627022  0.11401600  1
  C  C440  1  0.96740866  0.91816980  0.04251882  1
  H  H441  1  0.91336851  0.82502433  0.12813531  1
  C  C442  1  0.82338731  0.76781487  0.25537215  1
  H  H443  1  0.95217570  0.68206606  0.30631605  1
  C  C444  1  0.81375670  0.68978316  0.34437933  1
  H  H445  1  0.80455676  0.80825582  0.22233355  1
  C  C446  1  0.94500504  0.51902471  0.03114141  1
  C  C447  1  0.91989559  0.77526745  0.20597012  1
  H  H448  1  0.89116272  0.63698451  0.38083631  1
  C  C449  1  0.77852490  0.65533614  0.39326733  1
  C  C450  1  0.92629823  0.55477591  0.22302650  1
  C  C451  1  0.75084937  0.91102173  0.08373701  1
  C  C452  1  0.87317952  0.67232471  0.34315459  1
  Zn  Zn453  1  0.86304183  0.74206780  0.07712142  1
  C  C454  1  0.92675976  0.86975396  0.00865153  1
  C  C455  1  0.90667719  0.70275565  0.29912781  1
  O  O456  1  0.87893353  0.95069827  0.48183089  1
  C  C457  1  0.88128017  0.75148910  0.25443638  1
  H  H458  1  0.94535175  0.60693833  0.20716620  1
  H  H459  1  0.97959466  0.99725273  0.46706726  1
  O  O460  1  0.92594101  0.80127874  0.01789055  1
  C  C461  1  0.78993643  0.73513485  0.29983883  1
  O  O462  1  0.96717534  0.76171191  0.20044763  1
  O  O463  1  0.80370652  0.63409855  0.44035194  1
  H  H464  1  0.78247996  0.86786750  0.48113208  1
  C  C465  1  0.95937368  0.50189206  0.25192229  1
  O  O466  1  0.98951026  0.60771151  0.08882323  1
  H  H467  1  0.87364716  0.50157624  0.41599894  1
  C  C468  1  0.97425203  0.99783714  0.03864632  1
  C  C469  1  0.86878445  0.53265633  0.21299811  1
  H  H470  1  0.99809112  0.80876260  0.07828397  1
  H  H471  1  0.76586429  0.66510589  0.61339591  1
  C  C472  1  0.85200823  0.56069438  0.62194552  1
  C  C473  1  0.92370468  0.55922323  0.86947922  1
  H  H474  1  0.87465447  0.72540080  0.81583391  1
  C  C475  1  0.85399574  0.68207483  0.90526811  1
  C  C476  1  0.87741893  0.67915509  0.84792283  1
  C  C477  1  0.78946133  0.55147845  0.63626737  1
  O  O478  1  0.80720828  0.79841926  0.89657252  1
  O  O479  1  0.97766559  0.81501029  0.56997232  1
  O  O480  1  0.92990295  0.67426320  0.73639307  1
  O  O481  1  0.90070274  0.85856809  0.78073186  1
  C  C482  1  0.94232148  0.89400388  0.79773917  1
  O  O483  1  0.86858571  0.62328192  0.60944775  1
  O  O484  1  0.96221495  0.55931037  0.74743698  1
  C  C485  1  0.93651616  0.61833185  0.76724644  1
  C  C486  1  0.91070498  0.61723956  0.83141471  1
  H  H487  1  0.94111210  0.83877101  0.68606785  1
  O  O488  1  0.94356097  0.91985523  0.85024357  1
  O  O489  1  0.84117131  0.80679888  0.57417736  1
  Zn  Zn490  1  0.85578279  0.89298293  0.88955140  1
  C  C491  1  0.80159963  0.83016830  0.60636697  1
  C  C492  1  0.75182775  0.61279164  0.63294237  1
  O  O493  1  0.80141321  0.81932669  0.66049144  1
  Zn  Zn494  1  0.90864739  0.88904789  0.55626490  1
  C  C495  1  0.81636829  0.74243691  0.93128534  1
  C  C496  1  0.75187943  0.87109778  0.57502386  1
  C  C497  1  0.99297784  0.89234398  0.75303137  1
  C  C498  1  0.90147489  0.56534005  0.92901737  1
  C  C499  1  0.98291212  0.86037801  0.69732163  1
  C  C500  1  0.86706022  0.62548773  0.94619754  1
  C  C501  1  0.91987503  0.50269376  0.97016144  1
  C  C502  1  0.98662135  0.50238442  0.98577121  1
  H  H503  1  0.95145628  0.51255084  0.85344092  1
  O  O504  1  0.88776827  0.50479599  0.62635923  1
  O  O505  1  0.89208482  0.90609884  0.97433202  1
  H  H506  1  0.85173604  0.63123644  0.99448576  1
  H  H507  1  0.75428148  0.53935557  0.79430114  1
  C  C508  1  0.75018552  0.88647593  0.51309996  1
  O  O509  1  0.81395078  0.99711792  0.86457144  1
  O  O510  1  0.93416460  0.98717358  0.60726113  1
  O  O511  1  0.80983564  0.74395939  0.98674950  1
