# generated using pymatgen
data_Zn3H10(C8O5)2
_symmetry_space_group_name_H-M   'P 1'
_cell_length_a   8.23332690
_cell_length_b   23.40963379
_cell_length_c   16.95137545
_cell_angle_alpha   90.00000000
_cell_angle_beta   90.00000000
_cell_angle_gamma   90.00000000
_symmetry_Int_Tables_number   1
_chemical_formula_structural   Zn3H10(C8O5)2
_chemical_formula_sum   'Zn18 H60 C96 O60'
_cell_volume   3267.19399381
_cell_formula_units_Z   6
loop_
 _symmetry_equiv_pos_site_id
 _symmetry_equiv_pos_as_xyz
  1  'x, y, z'
loop_
 _atom_site_type_symbol
 _atom_site_label
 _atom_site_symmetry_multiplicity
 _atom_site_fract_x
 _atom_site_fract_y
 _atom_site_fract_z
 _atom_site_occupancy
  C  C0  1  0.09856595  0.09916694  0.46595311  1
  Zn  Zn1  1  0.11727007  0.19537659  0.18652964  1
  O  O2  1  0.36832955  0.03973969  0.37830051  1
  H  H3  1  0.17482101  0.08223434  0.23375388  1
  H  H4  1  0.16621581  0.06201625  0.48378673  1
  C  C5  1  0.38377446  0.10285738  0.01574794  1
  C  C6  1  0.40339631  0.13554717  0.09060374  1
  C  C7  1  0.07297570  0.20351223  0.46656022  1
  C  C8  1  0.46128857  0.00833002  0.41498446  1
  H  H9  1  0.12677146  0.20311356  0.32786353  1
  Zn  Zn10  1  0.42413396  0.08640226  0.27376313  1
  O  O11  1  0.19678618  0.12094666  0.25288834  1
  O  O12  1  0.30662324  0.17781060  0.10254874  1
  C  C13  1  0.15566505  0.15287904  0.49155124  1
  O  O14  1  0.11869018  0.23449810  0.29648667  1
  O  O15  1  0.40258789  0.00031178  0.21546602  1
  H  H16  1  0.12297361  0.24478975  0.48892155  1
  O  O17  1  0.48592528  0.11678967  0.14633313  1
  H  H18  1  0.20038705  0.23676609  0.00380661  1
  C  C19  1  0.35006695  0.03740032  0.88311842  1
  C  C20  1  0.38581187  0.23811351  0.90779733  1
  H  H21  1  0.12473253  0.08098237  0.85729334  1
  C  C22  1  0.22655176  0.07781854  0.89848507  1
  H  H23  1  0.48961258  0.21227546  0.92826585  1
  C  C24  1  0.29468992  0.15361658  0.54386596  1
  O  O25  1  0.35012415  0.20461737  0.55450516  1
  O  O26  1  0.36239429  0.10974983  0.57336786  1
  C  C27  1  0.48026430  0.02953426  0.93581639  1
  C  C28  1  0.25922826  0.11524819  0.96088283  1
  O  O29  1  0.01731963  0.22288256  0.65110479  1
  H  H30  1  0.04893399  0.19431979  0.68728436  1
  H  H31  1  0.17108779  0.14749740  0.97818447  1
  C  C32  1  0.23045351  0.24646389  0.94156106  1
  C  C33  1  0.37723427  0.42674398  0.12609107  1
  C  C34  1  0.38456330  0.47474028  0.07718696  1
  O  O35  1  0.30743651  0.33720530  0.22850507  1
  H  H36  1  0.32131190  0.45608792  0.44554978  1
  O  O37  1  0.12728585  0.29877110  0.14643483  1
  C  C38  1  0.15867069  0.38788199  0.04421905  1
  H  H39  1  0.45475941  0.42281601  0.18229523  1
  O  O40  1  0.19824682  0.37681564  0.42567757  1
  Zn  Zn41  1  0.25409348  0.30256815  0.34781339  1
  C  C42  1  0.26495645  0.38462828  0.11023495  1
  C  C43  1  0.23523056  0.33420809  0.16248870  1
  H  H44  1  0.06608358  0.35489641  0.03026155  1
  O  O45  1  0.44955012  0.27951160  0.40494779  1
  C  C46  1  0.28166445  0.47667321  0.01179937  1
  H  H47  1  0.46457586  0.30768654  0.44483834  1
  C  C48  1  0.28301085  0.46168340  0.67363585  1
  H  H49  1  0.16982695  0.31499777  0.77068546  1
  O  O50  1  0.45376042  0.27061146  0.70202875  1
  C  C51  1  0.23652309  0.41464137  0.55129314  1
  Zn  Zn52  1  0.22285783  0.27347920  0.63861251  1
  C  C53  1  0.23617543  0.40816525  0.63740139  1
  C  C54  1  0.16170521  0.43588667  0.99465530  1
  H  H55  1  0.28986767  0.46128668  0.73643131  1
  C  C56  1  0.12455902  0.28152577  0.89381501  1
  O  O57  1  0.19160334  0.36411572  0.67384763  1
  C  C58  1  0.21123625  0.28893025  0.82251901  1
  O  O59  1  0.16608751  0.31650469  0.52613360  1
  H  H60  1  0.07986415  0.43772652  0.94267325  1
  C  C61  1  0.36198733  0.26156224  0.83167637  1
  C  C62  1  0.29823562  0.46189699  0.50854085  1
  C  C63  1  0.48955365  0.25152744  0.76887722  1
  C  C64  1  0.19682389  0.36543539  0.50016302  1
  H  H65  1  0.17978395  0.58617111  0.28471222  1
  Zn  Zn66  1  0.18727326  0.62989937  0.11701476  1
  C  C67  1  0.34521138  0.64475793  0.21322839  1
  C  C68  1  0.36002519  0.69313908  0.16244816  1
  C  C69  1  0.18540747  0.62210242  0.23912325  1
  C  C70  1  0.03880154  0.69724643  0.14440894  1
  C  C71  1  0.02848095  0.65192249  0.20480399  1
  H  H72  1  0.46553639  0.50969441  0.08656075  1
  O  O73  1  0.47458843  0.59143751  0.30928989  1
  C  C74  1  0.20295748  0.71775004  0.12277848  1
  H  H75  1  0.07081218  0.59689580  0.46408547  1
  Zn  Zn76  1  0.01774304  0.68601389  0.47223689  1
  C  C77  1  0.49211200  0.63175472  0.26228692  1
  H  H78  1  0.48014601  0.71564312  0.15651846  1
  O  O79  1  0.23669807  0.73865320  0.43786087  1
  C  C80  1  0.01732119  0.50178607  0.25647770  1
  O  O81  1  0.14282383  0.65166374  0.56210453  1
  C  C82  1  0.29854422  0.52516842  0.95321270  1
  O  O83  1  0.15155416  0.64666761  0.72181766  1
  Zn  Zn84  1  0.32239411  0.68922089  0.63949409  1
  C  C85  1  0.15163789  0.74490275  0.86714377  1
  C  C86  1  0.39701844  0.56160928  0.67320531  1
  H  H87  1  0.33428739  0.68308918  0.90300990  1
  C  C88  1  0.30888296  0.72582720  0.88543723  1
  O  O89  1  0.46722275  0.60044178  0.63850304  1
  C  C90  1  0.34372149  0.51113874  0.54692836  1
  Zn  Zn91  1  0.18444898  0.59896888  0.81901994  1
  O  O92  1  0.38601136  0.55998634  0.74893597  1
  C  C93  1  0.33374472  0.50860048  0.63070756  1
  H  H94  1  0.06217649  0.67086721  0.72994021  1
  O  O95  1  0.19842544  0.52902507  0.89514107  1
  H  H96  1  0.39933288  0.54820100  0.51170337  1
  O  O97  1  0.03144886  0.65467695  0.89121036  1
  H  H98  1  0.07584459  0.65416803  0.60924835  1
  O  O99  1  0.40572831  0.74774244  0.53654038  1
  O  O100  1  0.40025507  0.56171862  0.96438736  1
  C  C101  1  0.00921305  0.70752900  0.87615505  1
  C  C102  1  0.21597255  0.90983105  0.06697783  1
  C  C103  1  0.27468040  0.98183815  0.18241296  1
  C  C104  1  0.41519785  0.94710767  0.43070839  1
  C  C105  1  0.32435978  0.76857301  0.48248683  1
  C  C106  1  0.31071464  0.93094241  0.12713044  1
  H  H107  1  0.10308348  0.93345103  0.06017609  1
  H  H108  1  0.13701951  0.84057774  0.38167533  1
  C  C109  1  0.25241677  0.86053069  0.40686485  1
  H  H110  1  0.22393870  0.94176110  0.34837803  1
  C  C111  1  0.29100961  0.91782568  0.39186505  1
  C  C112  1  0.34340311  0.83096690  0.46296442  1
  C  C113  1  0.46428407  0.90756627  0.14440283  1
  C  C114  1  0.41150382  0.83794101  0.03819150  1
  H  H115  1  0.22153467  0.76173329  0.10456788  1
  O  O116  1  0.14066340  0.99953373  0.19164918  1
  H  H117  1  0.46365772  0.78323245  0.35811781  1
  C  C118  1  0.26747447  0.86415797  0.01839737  1
  C  C119  1  0.13225052  0.80335899  0.84580028  1
  C  C120  1  0.26291074  0.83842348  0.83126751  1
  Zn  Zn121  1  0.48853141  0.97445947  0.84049098  1
  H  H122  1  0.20936524  0.85920217  0.62038639  1
  O  O123  1  0.17271604  0.76874566  0.67104912  1
  H  H124  1  0.24551028  0.88192895  0.80752674  1
  C  C125  1  0.41719466  0.81328632  0.83624300  1
  C  C126  1  0.08652702  0.87496984  0.62473300  1
  H  H127  1  0.12339825  0.96515263  0.59011397  1
  C  C128  1  0.02474067  0.77495325  0.66210763  1
  C  C129  1  0.04146678  0.93187958  0.61209855  1
  H  H130  1  0.19398336  0.84523926  0.97350722  1
  C  C131  1  0.44369960  0.75730173  0.86462937  1
  C  C132  1  0.47647376  0.85799772  0.50012192  1
  H  H133  1  0.48991336  0.76874626  0.69924889  1
  H  H134  1  0.00961964  0.81755423  0.83625939  1
  O  O135  1  0.59233515  0.02692815  0.44515753  1
  O  O136  1  0.90395292  0.17548658  0.12392921  1
  C  C137  1  0.87654946  0.09978191  0.03245981  1
  H  H138  1  0.60460614  0.04872550  0.04689908  1
  H  H139  1  0.91978736  0.04986468  0.39968713  1
  C  C140  1  0.73540907  0.14176896  0.34405959  1
  O  O141  1  0.67954037  0.09944399  0.30618736  1
  H  H142  1  0.85613334  0.06575454  0.07633258  1
  O  O143  1  0.66802350  0.18832160  0.33804114  1
  C  C144  1  0.89539357  0.16069447  0.05235466  1
  C  C145  1  0.88592368  0.14203312  0.39709913  1
  Zn  Zn146  1  0.58136670  0.22131080  0.47260691  1
  C  C147  1  0.93961604  0.19712591  0.42126217  1
  H  H148  1  0.87582409  0.23622321  0.40373530  1
  C  C149  1  0.96587468  0.09218475  0.41663040  1
  C  C150  1  0.50624402  0.06140843  0.00621665  1
  Zn  Zn151  1  0.77826774  0.21661166  0.68299393  1
  C  C152  1  0.88656989  0.09282560  0.81037317  1
  Zn  Zn153  1  0.61072173  0.09415092  0.53813035  1
  H  H154  1  0.90198252  0.10928970  0.70309261  1
  C  C155  1  0.89300032  0.17771278  0.90348250  1
  H  H156  1  0.90519193  0.20842619  0.85781737  1
  O  O157  1  0.69526604  0.17775396  0.57092185  1
  O  O158  1  0.87596001  0.04337958  0.79273262  1
  H  H159  1  0.80604294  0.17089398  0.55599802  1
  O  O160  1  0.90102119  0.13655384  0.74444872  1
  C  C161  1  0.88629438  0.11741628  0.88925706  1
  C  C162  1  0.87295705  0.07984150  0.95601795  1
  O  O163  1  0.61808649  0.22566823  0.78422249  1
  O  O164  1  0.93012128  0.04531823  0.59354744  1
  H  H165  1  0.87493773  0.03341367  0.94490912  1
  O  O166  1  0.67471398  0.02103253  0.60976671  1
  C  C167  1  0.82768669  0.00920583  0.60903832  1
  C  C168  1  0.90158091  0.19264885  0.98244869  1
  H  H169  1  0.89758498  0.37006076  0.41421849  1
  C  C170  1  0.85475164  0.46918142  0.42953718  1
  C  C171  1  0.83345913  0.40408372  0.45216554  1
  H  H172  1  0.92424400  0.48429092  0.37836759  1
  C  C173  1  0.84017017  0.37378441  0.26879190  1
  O  O174  1  0.77992525  0.39346887  0.22139679  1
  O  O175  1  0.65992001  0.33338422  0.06552380  1
  H  H176  1  0.69925362  0.35405233  0.10996506  1
  H  H177  1  0.59095759  0.35747133  0.04315115  1
  O  O178  1  0.75384191  0.29007441  0.49697038  1
  Zn  Zn179  1  0.90832819  0.27399922  0.01962574  1
  O  O180  1  0.86454346  0.33671176  0.87459352  1
  Zn  Zn181  1  0.91574675  0.45758042  0.54592024  1
  O  O182  1  0.76453448  0.30782167  0.62334849  1
  C  C183  1  0.76748952  0.38540959  0.52817721  1
  C  C184  1  0.66807791  0.42714591  0.57018771  1
  C  C185  1  0.76211607  0.32402701  0.55338001  1
  C  C186  1  0.67167257  0.49180417  0.54615239  1
  H  H187  1  0.55945652  0.41400293  0.60577631  1
  C  C188  1  0.95947212  0.30853974  0.91057382  1
  O  O189  1  0.88605576  0.73652314  0.41023883  1
  C  C190  1  0.88579152  0.72734341  0.13497123  1
  Zn  Zn191  1  0.75692291  0.72531480  0.30987797  1
  C  C192  1  0.84021266  0.57763008  0.47566255  1
  O  O193  1  0.62029089  0.66085430  0.25784523  1
  Zn  Zn194  1  0.63494760  0.56134668  0.39750879  1
  H  H195  1  0.90797065  0.63656990  0.22806939  1
  O  O196  1  0.79604169  0.72697884  0.07413974  1
  O  O197  1  0.99419695  0.59783936  0.41718637  1
  O  O198  1  0.90335237  0.52262955  0.25404778  1
  C  C199  1  0.77210566  0.51358316  0.47991897  1
  H  H200  1  0.65815331  0.61365426  0.74573315  1
  O  O201  1  0.76552290  0.62889066  0.76149611  1
  O  O202  1  0.86634593  0.72698885  0.86921804  1
  O  O203  1  0.92685355  0.73573667  0.66955748  1
  H  H204  1  0.78732969  0.61767058  0.81639582  1
  Zn  Zn205  1  0.73973402  0.73632367  0.75662444  1
  H  H206  1  0.61229207  0.52278629  0.58326690  1
  H  H207  1  0.56477297  0.74080687  0.87039622  1
  O  O208  1  0.53113850  0.73161842  0.69703538  1
  O  O209  1  0.80914765  0.61681962  0.51837433  1
  Zn  Zn210  1  0.62796892  0.78996488  0.05405896  1
  O  O211  1  0.82888845  0.89319028  0.36213902  1
  C  C212  1  0.50883390  0.85964341  0.09909799  1
  C  C213  1  0.86278809  0.92384952  0.40533616  1
  H  H214  1  0.91879326  0.77382049  0.42709837  1
  O  O215  1  0.78764613  0.97565565  0.09784143  1
  H  H216  1  0.54698657  0.92334839  0.19159720  1
  C  C217  1  0.84757259  0.96241738  0.03956433  1
  O  O218  1  0.85662373  0.75489481  0.19590969  1
  C  C219  1  0.50427660  0.91547229  0.48431254  1
  H  H220  1  0.59837614  0.82380359  0.35503186  1
  O  O221  1  0.55791348  0.79270515  0.32664734  1
  C  C222  1  0.87126476  0.94733494  0.62161802  1
  C  C223  1  0.80017813  0.84970458  0.64451754  1
  C  C224  1  0.56194490  0.84634880  0.81221992  1
  H  H225  1  0.62429735  0.92277147  0.62785964  1
  C  C226  1  0.75007600  0.90771620  0.63028855  1
  O  O227  1  0.54911881  0.89715159  0.78530906  1
  H  H228  1  0.56365901  0.83267184  0.53782993  1
  H  H229  1  0.71772059  0.81503987  0.66130603  1
  O  O230  1  0.69160692  0.81920177  0.80560641  1
  H  H231  1  0.60906143  0.93717639  0.50946386  1
  C  C232  1  0.96657564  0.83554076  0.64481337  1
  O  O233  1  0.90924115  0.94992028  0.97849745  1
