# generated using pymatgen
data_Zn2H8C15O7
_symmetry_space_group_name_H-M   'P 1'
_cell_length_a   11.84034174
_cell_length_b   17.33069202
_cell_length_c   29.54701157
_cell_angle_alpha   90.00000000
_cell_angle_beta   90.00000000
_cell_angle_gamma   90.00000000
_symmetry_Int_Tables_number   1
_chemical_formula_structural   Zn2H8C15O7
_chemical_formula_sum   'Zn32 H128 C240 O112'
_cell_volume   6063.08566169
_cell_formula_units_Z   16
loop_
 _symmetry_equiv_pos_site_id
 _symmetry_equiv_pos_as_xyz
  1  'x, y, z'
loop_
 _atom_site_type_symbol
 _atom_site_label
 _atom_site_symmetry_multiplicity
 _atom_site_fract_x
 _atom_site_fract_y
 _atom_site_fract_z
 _atom_site_occupancy
  H  H0  1  0.02443097  0.09893135  0.21690644  1
  O  O1  1  0.19830437  0.32371342  0.03248689  1
  H  H2  1  0.39913234  0.41853943  0.07511289  1
  C  C3  1  0.37317930  0.48128485  0.08499180  1
  H  H4  1  0.19286111  0.17166040  0.13607230  1
  H  H5  1  0.02461291  0.25468816  0.11323357  1
  O  O6  1  0.45755817  0.45616276  0.20131352  1
  C  C7  1  0.14554920  0.04793674  0.08814734  1
  O  O8  1  0.07823742  0.10201236  0.09174314  1
  H  H9  1  0.40628886  0.04416510  0.06213466  1
  Zn  Zn10  1  0.19526918  0.21389287  0.21196336  1
  O  O11  1  0.02316686  0.23971816  0.21265785  1
  C  C12  1  0.42156250  0.06832684  0.02698806  1
  H  H13  1  0.40923795  0.02793938  0.20569407  1
  O  O14  1  0.44622839  0.37974931  0.14450249  1
  O  O15  1  0.46913284  0.05230505  0.18844005  1
  O  O16  1  0.25728960  0.19993625  0.14648000  1
  Zn  Zn17  1  0.35551502  0.09969597  0.15050205  1
  C  C18  1  0.46609010  0.14461213  0.02188182  1
  C  C19  1  0.43844814  0.44730398  0.16034132  1
  O  O20  1  0.23351374  0.07855861  0.21746669  1
  O  O21  1  0.49302478  0.15022682  0.10122329  1
  Zn  Zn22  1  0.03441880  0.28041193  0.02919141  1
  O  O23  1  0.22987194  0.04193999  0.11369530  1
  C  C24  1  0.11970975  0.05122217  0.27586206  1
  H  H25  1  0.31280087  0.16071754  0.30661497  1
  O  O26  1  0.35090140  0.07155982  0.37472832  1
  Zn  Zn27  1  0.35026760  0.47132670  0.25621607  1
  C  C28  1  0.16604673  0.42414394  0.47653766  1
  C  C29  1  0.09158907  0.42988881  0.39977921  1
  C  C30  1  0.34289857  0.19186805  0.41864095  1
  C  C31  1  0.28468057  0.31448094  0.29629667  1
  C  C32  1  0.12236987  0.02931930  0.32134836  1
  C  C33  1  0.30116521  0.27090713  0.34046863  1
  H  H34  1  0.31469119  0.30536977  0.45290446  1
  C  C35  1  0.03344226  0.39601728  0.35920199  1
  C  C36  1  0.05511671  0.31587596  0.34998279  1
  H  H37  1  0.05707971  0.22610375  0.29939259  1
  C  C38  1  0.37660314  0.15284980  0.46113331  1
  C  C39  1  0.31066223  0.19171554  0.33899999  1
  C  C40  1  0.11789800  0.38794766  0.43828101  1
  C  C41  1  0.32229740  0.27221191  0.42020495  1
  C  C42  1  0.02952815  0.28560154  0.30757072  1
  C  C43  1  0.30177874  0.31340650  0.38083144  1
  C  C44  1  0.33476927  0.14610221  0.37747786  1
  H  H45  1  0.09587800  0.27910049  0.37769023  1
  H  H46  1  0.28135393  0.37740375  0.38122697  1
  C  C47  1  0.39579360  0.07020799  0.46009815  1
  H  H48  1  0.09138752  0.32735959  0.44541762  1
  H  H49  1  0.44923924  0.32228916  0.31263177  1
  O  O50  1  0.27201995  0.38681220  0.29680161  1
  O  O51  1  0.28786912  0.27335004  0.26131667  1
  C  C52  1  0.38166256  0.02627332  0.41827559  1
  C  C53  1  0.02539392  0.03917289  0.34655280  1
  H  H54  1  0.02265971  0.02451542  0.38374885  1
  C  C55  1  0.22253727  0.03536776  0.25091109  1
  C  C56  1  0.02311771  0.08169843  0.25436254  1
  C  C57  1  0.44324058  0.02869462  0.49718082  1
  H  H58  1  0.19908871  0.00468811  0.33579251  1
  C  C59  1  0.20416281  0.11520677  0.73844183  1
  H  H60  1  0.36003294  0.25021677  0.50561014  1
  Zn  Zn61  1  0.04983172  0.15714183  0.65082983  1
  O  O62  1  0.23405946  0.41303231  0.54905630  1
  O  O63  1  0.45589869  0.13755406  0.61816371  1
  C  C64  1  0.22596852  0.36598795  0.68375170  1
  C  C65  1  0.42265630  0.14657753  0.54037281  1
  C  C66  1  0.22583859  0.36828805  0.73499860  1
  C  C67  1  0.46203635  0.06874391  0.53689558  1
  H  H68  1  0.39062662  0.41506366  0.73972438  1
  O  O69  1  0.31737339  0.38061382  0.66068509  1
  C  C70  1  0.41263130  0.17813980  0.58673057  1
  O  O71  1  0.13889388  0.35480079  0.66120011  1
  C  C72  1  0.19239163  0.37532588  0.51711515  1
  Zn  Zn73  1  0.39200313  0.12605504  0.68481007  1
  Zn  Zn74  1  0.36579373  0.36190446  0.59551110  1
  O  O75  1  0.18243000  0.15564860  0.70388087  1
  O  O76  1  0.35041889  0.23470115  0.59560272  1
  O  O77  1  0.16229354  0.30670238  0.52207673  1
  O  O78  1  0.08650742  0.17633079  0.58338925  1
  H  H79  1  0.30989338  0.00608753  0.56498831  1
  H  H80  1  0.05859606  0.31220916  0.73825360  1
  O  O81  1  0.32927996  0.02209322  0.64623447  1
  C  C82  1  0.38429073  0.18958796  0.50366314  1
  H  H83  1  0.16200432  0.19246285  0.58043922  1
  O  O84  1  0.30199232  0.09427729  0.74725856  1
  O  O85  1  0.49240889  0.20375013  0.72644917  1
  O  O86  1  0.49840459  0.38980885  0.55172647  1
  Zn  Zn87  1  0.02056557  0.23014064  0.53168154  1
  C  C88  1  0.21661525  0.37698232  0.82810198  1
  C  C89  1  0.32242437  0.39118917  0.75989219  1
  C  C90  1  0.15810866  0.05167214  0.81129114  1
  C  C91  1  0.31929136  0.39677944  0.80743568  1
  C  C92  1  0.39332868  0.18621754  0.86284751  1
  C  C93  1  0.45993803  0.13008659  0.94150198  1
  C  C94  1  0.12344626  0.46902870  0.88478666  1
  C  C95  1  0.20242794  0.37925280  0.95537400  1
  C  C96  1  0.42150750  0.05308928  0.94695741  1
  H  H97  1  0.24766656  0.04161367  0.81661309  1
  C  C98  1  0.20093391  0.40693029  0.87665107  1
  C  C99  1  0.12591638  0.33913185  0.80454970  1
  O  O100  1  0.35244193  0.31116851  0.99270601  1
  H  H101  1  0.38225734  0.43299804  0.82491100  1
  H  H102  1  0.28987548  0.31026006  0.90597109  1
  H  H103  1  0.11198909  0.45654352  0.99839926  1
  C  C104  1  0.42449011  0.20001974  0.81790001  1
  C  C105  1  0.23423228  0.35950610  0.91231601  1
  H  H106  1  0.12966391  0.00143295  0.87793464  1
  H  H107  1  0.30850033  0.18077005  0.87640856  1
  C  C108  1  0.25891293  0.33591528  0.99554267  1
  C  C109  1  0.09130109  0.02927875  0.84839628  1
  C  C110  1  0.12919280  0.44244428  0.96223156  1
  C  C111  1  0.11876248  0.09318531  0.77246994  1
  H  H112  1  0.35702011  0.21717826  0.79241878  1
  H  H113  1  0.05021707  0.31547352  0.82319190  1
  C  C114  1  0.09073347  0.48899825  0.92805557  1
  C  C115  1  0.48094720  0.16681869  0.89519421  1
  O  O116  1  0.42207718  0.00972297  0.86834990  1
  C  C117  1  0.39174133  0.02543754  0.98968231  1
  C  C118  1  0.00486461  0.10771924  0.76803527  1
  C  C119  1  0.47639299  0.17630054  0.97989763  1
  C  C120  1  0.12720245  0.33838552  0.75685180  1
  C  C121  1  0.29164512  0.90167910  0.08143760  1
  C  C122  1  0.27953331  0.60307076  0.06876952  1
  C  C123  1  0.20956811  0.92691193  0.04417720  1
  C  C124  1  0.39596926  0.50855523  0.12950316  1
  C  C125  1  0.45850451  0.91492500  0.12600509  1
  H  H126  1  0.04140342  0.90621134  0.20903209  1
  Zn  Zn127  1  0.06463528  0.56829585  0.21842446  1
  C  C128  1  0.06737394  0.75116474  0.23531261  1
  O  O129  1  0.40817947  0.84104917  0.24310189  1
  C  C130  1  0.22450331  0.66962400  0.04205286  1
  H  H131  1  0.27798913  0.68700604  0.12207362  1
  H  H132  1  0.14509282  0.86231043  0.11630893  1
  H  H133  1  0.20597402  0.65046800  0.19851977  1
  C  C134  1  0.30533909  0.62870964  0.11192882  1
  C  C135  1  0.28822844  0.85573657  0.15988227  1
  C  C136  1  0.29353525  0.65237111  0.21425378  1
  C  C137  1  0.38423166  0.61908731  0.19016921  1
  H  H138  1  0.45303555  0.94560415  0.05333700  1
  C  C139  1  0.23826474  0.86707240  0.11899455  1
  C  C140  1  0.45563544  0.87414218  0.20897478  1
  C  C141  1  0.41169576  0.91990724  0.08322995  1
  C  C142  1  0.00799684  0.86366729  0.18490276  1
  C  C143  1  0.19976924  0.88132223  0.00454162  1
  H  H144  1  0.23749182  0.82662040  0.18933918  1
  C  C145  1  0.36783928  0.58371633  0.14303417  1
  C  C146  1  0.40061501  0.88234865  0.16333223  1
  O  O147  1  0.18371447  0.72755924  0.05810527  1
  O  O148  1  0.06240127  0.68255847  0.24654388  1
  C  C149  1  0.13259513  0.98917218  0.05185934  1
  C  C150  1  0.01225682  0.78369117  0.19309709  1
  C  C151  1  0.49672378  0.62295054  0.20825552  1
  C  C152  1  0.31861871  0.52925442  0.05408375  1
  C  C153  1  0.04666353  0.99926296  0.01924442  1
  H  H154  1  0.29816354  0.50748740  0.01901147  1
  O  O155  1  0.19171617  0.51974167  0.24678186  1
  C  C156  1  0.18368988  0.54282077  0.44127014  1
  O  O157  1  0.29589657  0.98980096  0.26491873  1
  O  O158  1  0.17418833  0.87353427  0.34466130  1
  O  O159  1  0.17828582  0.60278372  0.33282982  1
  H  H160  1  0.21798219  0.60401127  0.43892293  1
  O  O161  1  0.05774904  0.90802444  0.45232293  1
  H  H162  1  0.09737528  0.87469680  0.33241928  1
  Zn  Zn163  1  0.46453072  0.74070675  0.47103843  1
  C  C164  1  0.15897218  0.55986511  0.36269167  1
  O  O165  1  0.15389487  0.73581424  0.45478105  1
  O  O166  1  0.34998519  0.76080437  0.33345481  1
  O  O167  1  0.39566985  0.95963244  0.41451744  1
  Zn  Zn168  1  0.10375351  0.81751107  0.39779853  1
  C  C169  1  0.43106346  0.73180169  0.31493442  1
  Zn  Zn170  1  0.26240679  0.85876611  0.28525783  1
  C  C171  1  0.20383892  0.50198142  0.47994282  1
  H  H172  1  0.44290676  0.70518614  0.39948138  1
  C  C173  1  0.41656473  0.68958681  0.27022617  1
  C  C174  1  0.21514919  0.74958730  0.48785009  1
  O  O175  1  0.29896649  0.79559835  0.48531168  1
  H  H176  1  0.21398994  0.96467414  0.49313623  1
  H  H177  1  0.23467427  0.70395913  0.27799902  1
  C  C178  1  0.14229016  0.50871091  0.40032480  1
  H  H179  1  0.47550429  0.96948703  0.49583489  1
  O  O180  1  0.49797395  0.68047591  0.41808431  1
  C  C181  1  0.01349695  0.88933822  0.48789295  1
  H  H182  1  0.15263867  0.51029666  0.27574911  1
  O  O183  1  0.10897070  0.79794710  0.26185850  1
  C  C184  1  0.30430158  0.68199665  0.25764222  1
  H  H185  1  0.39165144  0.93217592  0.71410608  1
  C  C186  1  0.30393046  0.72807691  0.65533599  1
  C  C187  1  0.39902111  0.76781325  0.74372301  1
  C  C188  1  0.18594572  0.95680853  0.60946252  1
  H  H189  1  0.24222413  0.52601591  0.51289114  1
  C  C190  1  0.08222425  0.91643426  0.69545574  1
  H  H191  1  0.06947517  0.63415580  0.50552652  1
  C  C192  1  0.10030368  0.61609521  0.57680032  1
  C  C193  1  0.11768944  0.64999310  0.53540834  1
  C  C194  1  0.24895098  0.69626060  0.61251100  1
  O  O195  1  0.05230911  0.55192089  0.65651377  1
  C  C196  1  0.09058235  0.90533875  0.61056503  1
  C  C197  1  0.25407350  0.73489870  0.57011712  1
  H  H198  1  0.04153936  0.97509832  0.69759414  1
  C  C199  1  0.14300322  0.59135185  0.65503840  1
  C  C200  1  0.17504661  0.63397805  0.61259140  1
  H  H201  1  0.31200128  0.78323509  0.56437290  1
  C  C202  1  0.31569371  0.81054488  0.72165611  1
  C  C203  1  0.07742986  0.91232071  0.53104463  1
  C  C204  1  0.19493178  0.71206168  0.53292584  1
  H  H205  1  0.18798978  0.82202555  0.66858120  1
  C  C206  1  0.26434152  0.79061675  0.68078051  1
  O  O207  1  0.20015070  0.59541452  0.69129485  1
  C  C208  1  0.04439870  0.87518585  0.65206916  1
  O  O209  1  0.20887259  0.96510996  0.69091822  1
  C  C210  1  0.24533732  0.98310153  0.65102076  1
  C  C211  1  0.03113284  0.88414548  0.56958056  1
  C  C212  1  0.07213551  0.86900159  0.73583378  1
  O  O213  1  0.42966179  0.61325406  0.51440177  1
  C  C214  1  0.40206100  0.68960998  0.67315523  1
  H  H215  1  0.44633036  0.64549575  0.65088193  1
  C  C216  1  0.04348053  0.79093882  0.73431969  1
  C  C217  1  0.44896694  0.70962618  0.71569685  1
  C  C218  1  0.48962481  0.60967937  0.54698944  1
  C  C219  1  0.17784548  0.95468973  0.52622765  1
  H  H220  1  0.04206684  0.56753250  0.58258456  1
  C  C221  1  0.01156282  0.75334926  0.69355033  1
  C  C222  1  0.48254309  0.94430058  0.70819835  1
  H  H223  1  0.47914894  0.92417150  0.63346407  1
  C  C224  1  0.00269479  0.79610443  0.65372805  1
  C  C225  1  0.23174181  0.97412101  0.56644658  1
  H  H226  1  0.26642831  0.85667401  0.73973660  1
  H  H227  1  0.08647000  0.88475782  0.77120348  1
  C  C228  1  0.10421824  0.86140456  0.92712686  1
  O  O229  1  0.00394212  0.67014356  0.77462804  1
  C  C230  1  0.44672552  0.78413345  0.78965079  1
  H  H231  1  0.25578063  0.57048276  0.80426328  1
  C  C232  1  0.04023624  0.74165692  0.77601252  1
  H  H233  1  0.30394300  0.71345439  0.88976157  1
  O  O234  1  0.37243686  0.72654981  0.90506746  1
  Zn  Zn235  1  0.33717187  0.83571164  0.88389686  1
  C  C236  1  0.03265936  0.95817294  0.97915341  1
  Zn  Zn237  1  0.12925769  0.58913171  0.75415306  1
  C  C238  1  0.07972126  0.52095533  0.84844630  1
  C  C239  1  0.11797331  0.90124181  0.97350831  1
  O  O240  1  0.10285583  0.50883204  0.80737746  1
  O  O241  1  0.22629817  0.66655809  0.99830736  1
  O  O242  1  0.37836899  0.93095845  0.92200020  1
  O  O243  1  0.17572316  0.81196998  0.91751332  1
  Zn  Zn244  1  0.37931014  0.64445202  0.96080545  1
  O  O245  1  0.06341119  0.77251539  0.81186012  1
  H  H246  1  0.35420354  0.96669592  0.99259965  1
  H  H247  1  0.03874574  0.53877683  0.93437842  1
  O  O248  1  0.32644261  0.60449697  0.79072101  1
  O  O249  1  0.41360183  0.83951687  0.81174471  1
  O  O250  1  0.39559773  0.54027154  0.91947983  1
  O  O251  1  0.01393643  0.57355264  0.86107531  1
  C  C252  1  0.40687523  0.99899945  0.90908695  1
  O  O253  1  0.03354966  0.88900157  0.90103917  1
  H  H254  1  0.26510973  0.83652169  0.99948225  1
  H  H255  1  0.30568209  0.61673747  0.75768930  1
  Zn  Zn256  1  0.48535292  0.97757021  0.80183173  1
  O  O257  1  0.48386809  0.51940638  0.85674139  1
  H  H258  1  0.46016878  0.50693463  0.98660065  1
  C  C259  1  0.47821651  0.51019199  0.89877365  1
  O  O260  1  0.97294605  0.46584124  0.12260836  1
  H  H261  1  0.98900115  0.04709705  0.02691183  1
  C  C262  1  0.81049818  0.38038895  0.02038068  1
  H  H263  1  0.53821246  0.33572659  0.23382467  1
  O  O264  1  0.71558578  0.15095584  0.20600381  1
  H  H265  1  0.60649921  0.44778027  0.04042787  1
  O  O266  1  0.83876464  0.16633188  0.02713948  1
  O  O267  1  0.91046527  0.36760893  0.00798262  1
  C  C268  1  0.65400612  0.20629139  0.21612545  1
  O  O269  1  0.57152557  0.22729600  0.19303206  1
  Zn  Zn270  1  0.56872186  0.29646814  0.13041863  1
  O  O271  1  0.72161844  0.35056332  0.14581010  1
  O  O272  1  0.76400323  0.06576438  0.11794561  1
  H  H273  1  0.72331251  0.40705013  0.14140249  1
  Zn  Zn274  1  0.88901797  0.35452322  0.12227072  1
  C  C275  1  0.61663663  0.44156235  0.00399534  1
  Zn  Zn276  1  0.90491366  0.12939934  0.08990464  1
  O  O277  1  0.78716194  0.38227776  0.06123454  1
  H  H278  1  0.65245831  0.02071382  0.04906673  1
  Zn  Zn279  1  0.64270723  0.03333608  0.20756724  1
  O  O280  1  0.96801824  0.24984479  0.09323933  1
  O  O281  1  0.94362779  0.34968045  0.19578572  1
  O  O282  1  0.53831078  0.25491772  0.06337373  1
  C  C283  1  0.98380366  0.30493146  0.22382215  1
  C  C284  1  0.50126487  0.18684557  0.06473955  1
  C  C285  1  0.96563575  0.41186894  0.28168476  1
  C  C286  1  0.78666638  0.11422547  0.43504232  1
  C  C287  1  0.65046854  0.25028928  0.26063231  1
  C  C288  1  0.57169643  0.37319928  0.39362620  1
  H  H289  1  0.87447198  0.36727055  0.48540703  1
  C  C290  1  0.67772882  0.08472100  0.43193295  1
  H  H291  1  0.59013801  0.28202971  0.44291492  1
  C  C292  1  0.53260564  0.35325032  0.31303877  1
  C  C293  1  0.57877098  0.31587584  0.26537330  1
  H  H294  1  0.84473584  0.10812383  0.26146977  1
  C  C295  1  0.67251912  0.21276446  0.30435993  1
  H  H296  1  0.66644074  0.14850732  0.30341405  1
  C  C297  1  0.92469375  0.08804242  0.27870578  1
  O  O298  1  0.50702745  0.45305555  0.31084110  1
  C  C299  1  0.83057771  0.48145133  0.46556358  1
  C  C300  1  0.82976899  0.15532008  0.47642884  1
  Zn  Zn301  1  0.72841635  0.33611834  0.30300040  1
  C  C302  1  0.83002699  0.07598156  0.35858761  1
  C  C303  1  0.71987303  0.04265481  0.35616347  1
  C  C304  1  0.56748121  0.34131989  0.43858498  1
  C  C305  1  0.86445866  0.11168325  0.39834472  1
  H  H306  1  0.94296824  0.14025957  0.40006900  1
  C  C307  1  0.64399966  0.05027825  0.39233582  1
  C  C308  1  0.64944740  0.25029138  0.35056901  1
  C  C309  1  0.59791944  0.32688845  0.35335517  1
  C  C310  1  0.92993180  0.07435051  0.32561345  1
  H  H311  1  0.61551256  0.09256403  0.45765856  1
  C  C312  1  0.67654978  0.00802794  0.31237420  1
  H  H313  1  0.64629378  0.20857213  0.38017562  1
  C  C314  1  0.53808603  0.38812953  0.47494490  1
  C  C315  1  0.54012748  0.45202904  0.38997878  1
  H  H316  1  0.56111023  0.02695560  0.38687916  1
  O  O317  1  0.92131509  0.19014082  0.47641635  1
  H  H318  1  0.92383270  0.44604738  0.25400664  1
  H  H319  1  0.83357838  0.47449455  0.42834595  1
  O  O320  1  0.71815894  0.01973414  0.27477713  1
  C  C321  1  0.99134736  0.33436377  0.27199822  1
  C  C322  1  0.97615015  0.44216296  0.32508706  1
  C  C323  1  0.52438253  0.49273571  0.34791101  1
  C  C324  1  0.51877362  0.46764232  0.47382356  1
  C  C325  1  0.53158700  0.49800625  0.43028160  1
  C  C326  1  0.85108058  0.42433133  0.49760371  1
  O  O327  1  0.86666418  0.29944934  0.55698146  1
  H  H328  1  0.93165164  0.26782174  0.68698535  1
  O  O329  1  0.89252725  0.37168500  0.61533387  1
  C  C330  1  0.84341182  0.43526919  0.54457171  1
  O  O331  1  0.68300099  0.21601664  0.62614888  1
  C  C332  1  0.80813674  0.37316275  0.72964069  1
  H  H333  1  0.66062488  0.46835326  0.70392207  1
  C  C334  1  0.53464142  0.34768970  0.52021654  1
  C  C335  1  0.87155662  0.36781127  0.57432647  1
  O  O336  1  0.74544736  0.33526403  0.70442138  1
  C  C337  1  0.86624351  0.01976455  0.63521687  1
  H  H338  1  0.63409938  0.17284740  0.62614102  1
  O  O339  1  0.77104581  0.15236998  0.51237358  1
  C  C340  1  0.82736589  0.00234339  0.55527920  1
  Zn  Zn341  1  0.75389933  0.21146159  0.68562124  1
  Zn  Zn342  1  0.71477203  0.23472487  0.56258369  1
  O  O343  1  0.95231792  0.05571971  0.62430367  1
  O  O344  1  0.92676104  0.21086662  0.68723436  1
  O  O345  1  0.90085028  0.39712589  0.71648323  1
  O  O346  1  0.57173768  0.28100024  0.52148962  1
  O  O347  1  0.84323034  0.01260115  0.67803961  1
  H  H348  1  0.90938576  0.03059138  0.55021677  1
  H  H349  1  0.69250642  0.43147346  0.62220765  1
  C  C350  1  0.72862748  0.48525161  0.63718164  1
  O  O351  1  0.66109913  0.16897870  0.74312146  1
  Zn  Zn352  1  0.99927591  0.43627543  0.66255333  1
  H  H353  1  0.50782505  0.04430386  0.56486333  1
  H  H354  1  0.97518790  0.13924657  0.73764739  1
  C  C355  1  0.66259721  0.43220905  0.91401788  1
  C  C356  1  0.80863713  0.43830893  0.85069236  1
  C  C357  1  0.93262007  0.08232785  0.80203352  1
  C  C358  1  0.71376870  0.40352337  0.99021801  1
  C  C359  1  0.65808439  0.36443989  0.78974741  1
  C  C360  1  0.78223925  0.00539595  0.88065278  1
  C  C361  1  0.84079917  0.42703431  0.80617592  1
  C  C362  1  0.62082102  0.17491213  0.83722561  1
  H  H363  1  0.54292264  0.35085893  0.84356754  1
  C  C364  1  0.53431650  0.18770569  0.80558950  1
  C  C365  1  0.91805762  0.09345278  0.91645355  1
  C  C366  1  0.76626872  0.39008116  0.77678431  1
  C  C367  1  0.74547669  0.40930506  0.94585365  1
  C  C368  1  0.59887964  0.17188597  0.88395298  1
  H  H369  1  0.83038313  0.39424940  0.93621173  1
  H  H370  1  0.66697100  0.15866008  0.90798872  1
  C  C371  1  0.69709523  0.41864964  0.86523769  1
  H  H372  1  0.70986358  0.17037051  0.82489024  1
  C  C373  1  0.62528841  0.37526621  0.83444577  1
  H  H374  1  0.67682001  0.08437732  0.97756203  1
  C  C375  1  0.84271049  0.10376647  0.95370254  1
  H  H376  1  0.92738405  0.43818168  0.79292655  1
  C  C377  1  0.70549726  0.01953795  0.91665405  1
  C  C378  1  0.88915190  0.04416706  0.88156086  1
  C  C379  1  0.73527525  0.07079659  0.95070759  1
  C  C380  1  0.56157184  0.47043354  0.92805096  1
  H  H381  1  0.87005409  0.47243705  0.87082596  1
  H  H382  1  0.83969723  0.09658631  0.79908650  1
  C  C383  1  0.97407767  0.04666752  0.84211645  1
  H  H384  1  0.60656084  0.33615837  0.76424301  1
  C  C385  1  0.53882181  0.47517301  0.97455540  1
  C  C386  1  0.56211613  0.18440277  0.75516558  1
  C  C387  1  0.89129498  0.15538168  0.98996105  1
  O  O388  1  0.98255696  0.19025898  0.98340234  1
  H  H389  1  0.99694011  0.12675613  0.91647318  1
  H  H390  1  0.50673024  0.23574571  0.97541488  1
  C  C391  1  0.76098071  0.61836887  0.12642174  1
  H  H392  1  0.85034608  0.75823010  0.03798129  1
  C  C393  1  0.74707643  0.57346140  0.03554934  1
  O  O394  1  0.75049730  0.96650562  0.16052704  1
  C  C395  1  0.74723196  0.60071958  0.21191292  1
  C  C396  1  0.76563367  0.93513465  0.08236344  1
  C  C397  1  0.90029620  0.83675985  0.11661677  1
  C  C398  1  0.83287301  0.54381745  0.06224614  1
  C  C399  1  0.74874431  0.65174840  0.17351737  1
  O  O400  1  0.55333965  0.89687335  0.21577889  1
  H  H401  1  0.74332827  0.77134974  0.14638481  1
  C  C402  1  0.51523155  0.66408181  0.24782105  1
  C  C403  1  0.92143028  0.75434185  0.12130015  1
  H  H404  1  0.61390912  0.68921411  0.11088186  1
  C  C405  1  0.97270458  0.72871388  0.16202115  1
  C  C406  1  0.82483033  0.86415266  0.07871235  1
  O  O407  1  0.94589526  0.54552670  0.17704528  1
  C  C408  1  0.83647821  0.56244068  0.10800492  1
  C  C409  1  0.75836789  0.76310807  0.22084509  1
  C  C410  1  0.67753513  0.64786982  0.09735639  1
  C  C411  1  0.66514598  0.62314688  0.05250332  1
  H  H412  1  0.76276220  0.53936936  0.20989806  1
  H  H413  1  0.55087472  0.92318363  0.13067099  1
  C  C414  1  0.74534167  0.73429242  0.17729678  1
  H  H415  1  0.77788550  0.82381488  0.22594533  1
  C  C416  1  0.80893181  0.81602709  0.04121008  1
  C  C417  1  0.56821588  0.65787618  0.02650495  1
  H  H418  1  0.89942056  0.71244581  0.09517822  1
  C  C419  1  0.73538929  0.84039900  0.00615035  1
  C  C420  1  0.69248214  0.96188241  0.04872212  1
  H  H421  1  0.56805404  0.59898685  0.18661707  1
  C  C422  1  0.67697880  0.91263025  0.01019303  1
  C  C423  1  0.96072311  0.89017095  0.14432151  1
  H  H424  1  0.96706211  0.95200270  0.13711140  1
  C  C425  1  0.92206454  0.52200822  0.13768852  1
  H  H426  1  0.99364841  0.66713632  0.16674679  1
  O  O427  1  0.50690752  0.70368303  0.04423878  1
  H  H428  1  0.89447771  0.50549864  0.04873611  1
  C  C429  1  0.76139602  0.99412125  0.12207968  1
  H  H430  1  0.81195713  0.97072259  0.48589322  1
  O  O431  1  0.75675838  0.81947507  0.30779518  1
  Zn  Zn432  1  0.58770223  0.85476005  0.28794315  1
  O  O433  1  0.92977390  0.79604954  0.40068091  1
  O  O434  1  0.73630239  0.68053071  0.46774433  1
  H  H435  1  0.89115108  0.81115470  0.37410534  1
  Zn  Zn436  1  0.63172702  0.65289990  0.36520593  1
  H  H437  1  0.75384731  0.59420084  0.28487734  1
  Zn  Zn438  1  0.80627801  0.79303220  0.44274191  1
  C  C439  1  0.76812571  0.74775721  0.30276913  1
  O  O440  1  0.58982250  0.96679128  0.31422483  1
  O  O441  1  0.53158694  0.75300158  0.32962351  1
  C  C442  1  0.75512446  0.61378993  0.45290450  1
  O  O443  1  0.77570822  0.70047399  0.33502837  1
  O  O444  1  0.66264267  0.86891235  0.45450694  1
  O  O445  1  0.74233148  0.59625021  0.41226922  1
  C  C446  1  0.79475065  0.55133839  0.48373134  1
  C  C447  1  0.75754125  0.71162164  0.25854131  1
  H  H448  1  0.59735032  0.67831432  0.26200416  1
  O  O449  1  0.93034596  0.51457738  0.33013775  1
  O  O450  1  0.92620762  0.85164525  0.49317188  1
  C  C451  1  0.75096041  0.62927980  0.25537410  1
  O  O452  1  0.51293090  0.56390732  0.34954580  1
  H  H453  1  0.52180419  0.55805238  0.42620369  1
  H  H454  1  0.98590322  0.53555376  0.35392055  1
  C  C455  1  0.61625677  0.87187962  0.49392121  1
  C  C456  1  0.83189083  0.60979320  0.62534129  1
  H  H457  1  0.51332818  0.67175405  0.73084058  1
  H  H458  1  0.74884238  0.62543805  0.53751903  1
  H  H459  1  0.94899013  0.85474584  0.57161204  1
  C  C460  1  0.56389035  0.96371326  0.74298754  1
  H  H461  1  0.55467447  0.87985019  0.57829395  1
  C  C462  1  0.63158959  0.91528002  0.57224052  1
  O  O463  1  0.53406091  0.83244837  0.50760106  1
  C  C464  1  0.79684577  0.53598389  0.61071131  1
  H  H465  1  0.78516384  0.91000381  0.69460233  1
  C  C466  1  0.64263157  0.95192361  0.65651839  1
  H  H467  1  0.81796321  0.68367909  0.68503875  1
  C  C468  1  0.67497952  0.91897601  0.52882116  1
  C  C469  1  0.74611053  0.57432865  0.69748814  1
  C  C470  1  0.68752420  0.94854357  0.60832896  1
  H  H471  1  0.87777873  0.65382337  0.60488196  1
  C  C472  1  0.53089146  0.93597221  0.66364687  1
  C  C473  1  0.70444321  0.50542448  0.68148579  1
  C  C474  1  0.78534037  0.56726152  0.53013431  1
  C  C475  1  0.77361526  0.96445711  0.52079660  1
  C  C476  1  0.80194691  0.62638812  0.66932212  1
  C  C477  1  0.72909044  0.96418762  0.69275358  1
  C  C478  1  0.81116422  0.50954494  0.56159608  1
  H  H479  1  0.98896882  0.69144385  0.69362827  1
  C  C480  1  0.67512721  0.97811285  0.73774069  1
  O  O481  1  0.54741959  0.60438183  0.57794951  1
  H  H482  1  0.96796377  0.76617618  0.62453651  1
  C  C483  1  0.79242893  0.98873973  0.60049628  1
  C  C484  1  0.71137035  0.59719103  0.74533238  1
  H  H485  1  0.50116401  0.50425884  0.50428787  1
  O  O486  1  0.82666274  0.92833540  0.82001695  1
  O  O487  1  0.63827576  0.56248240  0.76535353  1
  C  C488  1  0.71754530  0.79352809  0.96324577  1
  H  H489  1  0.69810549  0.57864403  0.86612447  1
  O  O490  1  0.58104076  0.68482785  0.87444018  1
  Zn  Zn491  1  0.87263055  0.63856435  0.82694186  1
  O  O492  1  0.76536261  0.72908033  0.96076791  1
  O  O493  1  0.66246873  0.81764344  0.92987711  1
  H  H494  1  0.62222937  0.93481956  0.98336370  1
  H  H495  1  0.61789348  0.99072024  0.91646910  1
  O  O496  1  0.77523859  0.59044491  0.87883516  1
  Zn  Zn497  1  0.68253349  0.62616740  0.93327522  1
  O  O498  1  0.54743537  0.63596034  0.98346317  1
  Zn  Zn499  1  0.65357709  0.79337284  0.85697720  1
  O  O500  1  0.76626612  0.65361904  0.76283132  1
  O  O501  1  0.64940245  0.92451264  0.84295042  1
  C  C502  1  0.74940877  0.95010663  0.84516585  1
  H  H503  1  0.84290002  0.76032835  0.88807119  1
  O  O504  1  0.82976508  0.75463935  0.85698753  1
  Zn  Zn505  1  0.93807492  0.84456710  0.84627526  1
  O  O506  1  0.53682286  0.74639686  0.80017681  1
  H  H507  1  0.50753268  0.69435027  0.88618545  1
  Zn  Zn508  1  0.51606417  0.62242146  0.81423404  1
  H  H509  1  0.97288093  0.97712104  0.95285902  1
  H  H510  1  0.74249126  0.55911995  0.99822521  1
  H  H511  1  0.72518878  0.99697826  0.76625087  1
