# generated using pymatgen
data_Zn2H6C16O9
_symmetry_space_group_name_H-M   'P 1'
_cell_length_a   11.16469867
_cell_length_b   16.33641439
_cell_length_c   24.64309721
_cell_angle_alpha   90.00000000
_cell_angle_beta   90.00000000
_cell_angle_gamma   90.00000000
_symmetry_Int_Tables_number   1
_chemical_formula_structural   Zn2H6C16O9
_chemical_formula_sum   'Zn16 H48 C128 O72'
_cell_volume   4494.68269357
_cell_formula_units_Z   8
loop_
 _symmetry_equiv_pos_site_id
 _symmetry_equiv_pos_as_xyz
  1  'x, y, z'
loop_
 _atom_site_type_symbol
 _atom_site_label
 _atom_site_symmetry_multiplicity
 _atom_site_fract_x
 _atom_site_fract_y
 _atom_site_fract_z
 _atom_site_occupancy
  C  C0  1  0.39526846  0.16825757  0.10038489  1
  C  C1  1  0.23435380  0.28281083  0.14679432  1
  O  O2  1  0.12323883  0.49947783  0.06634993  1
  H  H3  1  0.25739082  0.40271211  0.18455327  1
  C  C4  1  0.43307813  0.25345936  0.02451291  1
  H  H5  1  0.36212477  0.15524909  0.14299366  1
  C  C6  1  0.21465033  0.34158800  0.18702884  1
  O  O7  1  0.30793231  0.30341632  0.09522107  1
  C  C8  1  0.48024129  0.45269202  0.22089548  1
  H  H9  1  0.17457834  0.16981999  0.11254227  1
  C  C10  1  0.17583015  0.20936314  0.15029145  1
  C  C11  1  0.37367186  0.24316411  0.07601834  1
  C  C12  1  0.47304888  0.02719036  0.10769062  1
  C  C13  1  0.45719271  0.10459420  0.07404048  1
  C  C14  1  0.12018426  0.18448357  0.20090777  1
  C  C15  1  0.14054881  0.31856821  0.23266169  1
  O  O16  1  0.44672108  0.03003951  0.15738713  1
  C  C17  1  0.06024415  0.10212457  0.20490343  1
  C  C18  1  0.03015550  0.46612048  0.07710771  1
  O  O19  1  0.04770849  0.06045575  0.16133182  1
  H  H20  1  0.44250597  0.31377898  0.00266160  1
  C  C21  1  0.11058877  0.23978029  0.24494073  1
  O  O22  1  0.02830306  0.07540931  0.24804088  1
  C  C23  1  0.49440313  0.19122958  0.00214955  1
  C  C24  1  0.09050019  0.38199662  0.27211439  1
  Zn  Zn25  1  0.07395023  0.40608060  0.39186492  1
  O  O26  1  0.02720778  0.36615171  0.31361201  1
  C  C27  1  0.29727228  0.27762384  0.38599009  1
  C  C28  1  0.42138341  0.33696410  0.45517769  1
  O  O29  1  0.23902791  0.34566226  0.38846403  1
  C  C30  1  0.41068534  0.26826124  0.42176515  1
  O  O31  1  0.27046484  0.22633491  0.35409952  1
  O  O32  1  0.46589715  0.04324236  0.37341221  1
  O  O33  1  0.44746772  0.03020980  0.28572745  1
  O  O34  1  0.11110437  0.45649099  0.25988961  1
  H  H35  1  0.35179222  0.38318519  0.45390513  1
  O  O36  1  0.46659619  0.43752853  0.26932029  1
  H  H37  1  0.46036502  0.15026643  0.39751024  1
  H  H38  1  0.06624169  0.22922401  0.28361941  1
  C  C39  1  0.46900926  0.00129129  0.33291950  1
  C  C40  1  0.49210519  0.20315020  0.42320269  1
  H  H41  1  0.44035982  0.25546530  0.68486276  1
  H  H42  1  0.04151963  0.23202459  0.60182112  1
  O  O43  1  0.10863637  0.34379281  0.52349095  1
  O  O44  1  0.25490565  0.36108961  0.66657254  1
  C  C45  1  0.40857406  0.24935059  0.72603768  1
  Zn  Zn46  1  0.36027930  0.43815038  0.62014338  1
  C  C47  1  0.25289279  0.36401065  0.71727468  1
  O  O48  1  0.49195315  0.46632419  0.68448092  1
  C  C49  1  0.01545636  0.32576787  0.50364615  1
  O  O50  1  0.19708792  0.41655298  0.74267816  1
  C  C51  1  0.48956918  0.45669308  0.73573804  1
  C  C52  1  0.31861087  0.29727633  0.74900059  1
  O  O53  1  0.47104856  0.44517177  0.55141138  1
  C  C54  1  0.41845586  0.17897614  0.81585426  1
  H  H55  1  0.21852365  0.32963961  0.81898722  1
  H  H56  1  0.10225921  0.24817897  0.82212620  1
  C  C57  1  0.32577407  0.22328593  0.83691868  1
  C  C58  1  0.07053373  0.24710533  0.86341528  1
  C  C59  1  0.15646409  0.22384936  0.90286859  1
  C  C60  1  0.28092863  0.28426247  0.80205118  1
  O  O61  1  0.27241943  0.20967862  0.89428871  1
  Zn  Zn62  1  0.02579862  0.43007175  0.77687054  1
  H  H63  1  0.46027516  0.13174365  0.84216916  1
  C  C64  1  0.10109121  0.21181025  0.95383208  1
  C  C65  1  0.45614476  0.18859582  0.76045446  1
  H  H66  1  0.05435886  0.49607677  0.96054609  1
  H  H67  1  0.15113365  0.18937054  0.98835966  1
  H  H68  1  0.49966114  0.45552315  0.84222080  1
  O  O69  1  0.44131007  0.52258433  0.20412475  1
  H  H70  1  0.46097909  0.58806948  0.02109830  1
  Zn  Zn71  1  0.01202393  0.50499509  0.19733044  1
  C  C72  1  0.35023533  0.67831428  0.44555746  1
  C  C73  1  0.27511659  0.61249748  0.45597103  1
  H  H74  1  0.34500517  0.69897395  0.40119938  1
  C  C75  1  0.41357728  0.72422845  0.48514636  1
  O  O76  1  0.25593285  0.57005544  0.36292994  1
  C  C77  1  0.48893653  0.91038486  0.34081288  1
  C  C78  1  0.22041446  0.56534986  0.41056161  1
  O  O79  1  0.14090113  0.51752027  0.42705137  1
  H  H80  1  0.47310204  0.93838130  0.42966265  1
  Zn  Zn81  1  0.42623178  0.53382746  0.33485277  1
  H  H82  1  0.49462165  0.86609821  0.25885528  1
  H  H83  1  0.01210397  0.69916383  0.49850850  1
  O  O84  1  0.48409172  0.78751839  0.47414701  1
  C  C85  1  0.49227956  0.89046616  0.39723848  1
  C  C86  1  0.49946437  0.81106960  0.41524487  1
  C  C87  1  0.49932763  0.84970244  0.30181442  1
  C  C88  1  0.31650403  0.61082441  0.60880349  1
  O  O89  1  0.38025869  0.63393874  0.64442548  1
  H  H90  1  0.45101076  0.73250099  0.57420860  1
  C  C91  1  0.40398316  0.69838820  0.54045979  1
  C  C92  1  0.32061785  0.63787062  0.54867127  1
  Zn  Zn93  1  0.08356180  0.60035330  0.65536838  1
  H  H94  1  0.30670427  0.57060355  0.70758546  1
  O  O95  1  0.13670029  0.68730090  0.71928902  1
  O  O96  1  0.24534874  0.54550445  0.62103366  1
  H  H97  1  0.19943740  0.54491465  0.52483786  1
  C  C98  1  0.25316398  0.59542830  0.51076273  1
  C  C99  1  0.29251854  0.61273098  0.84297598  1
  C  C100  1  0.38266292  0.56171586  0.85905786  1
  C  C101  1  0.17201441  0.67764572  0.76780220  1
  H  H102  1  0.25390672  0.65584658  0.87297128  1
  O  O103  1  0.12018019  0.71807873  0.80310404  1
  C  C104  1  0.26366459  0.61530450  0.78697462  1
  O  O105  1  0.41973367  0.56782466  0.91896431  1
  H  H106  1  0.44550176  0.72712474  0.87494860  1
  C  C107  1  0.45721215  0.71926529  0.91782004  1
  C  C108  1  0.44743266  0.63954206  0.94072175  1
  C  C109  1  0.41433409  0.51160009  0.77100210  1
  C  C110  1  0.48549723  0.79439446  0.94065556  1
  O  O111  1  0.46784534  0.87482164  0.85702464  1
  C  C112  1  0.43648030  0.50414656  0.82634294  1
  C  C113  1  0.47007392  0.64464148  0.99703168  1
  O  O114  1  0.48953751  0.93725181  0.93375619  1
  C  C115  1  0.48079362  0.87401990  0.90707921  1
  C  C116  1  0.32775210  0.56721471  0.75195400  1
  C  C117  1  0.72337859  0.42304685  0.01499784  1
  Zn  Zn118  1  0.91665678  0.08550165  0.10596581  1
  C  C119  1  0.92796599  0.21443755  0.01882763  1
  C  C120  1  0.54439127  0.42361085  0.12807508  1
  H  H121  1  0.69266793  0.26263478  0.07190395  1
  C  C122  1  0.60138612  0.37544041  0.08939990  1
  O  O123  1  0.61319152  0.39973202  0.02975316  1
  C  C124  1  0.69263253  0.19084515  0.17079434  1
  Zn  Zn125  1  0.57336454  0.05468352  0.22339903  1
  H  H126  1  0.81609603  0.41832408  0.09057017  1
  O  O127  1  0.74424733  0.14633475  0.13537885  1
  C  C128  1  0.65021828  0.30254089  0.10377702  1
  O  O129  1  0.83103981  0.01975926  0.05034079  1
  C  C130  1  0.64679523  0.27451564  0.15959864  1
  O  O131  1  0.82336910  0.23164138  0.02346518  1
  C  C132  1  0.59065852  0.32233478  0.19845591  1
  O  O133  1  0.67518701  0.16264259  0.21806011  1
  C  C134  1  0.93940651  0.45917289  0.03018727  1
  C  C135  1  0.82765199  0.43211632  0.04788822  1
  C  C136  1  0.50486657  0.11174564  0.02402705  1
  C  C137  1  0.53477496  0.39483887  0.18180719  1
  H  H138  1  0.58412587  0.30191040  0.24152141  1
  H  H139  1  0.56333671  0.06196490  0.00600090  1
  O  O140  1  0.98365174  0.18652440  0.06008501  1
  O  O141  1  0.99486143  0.44885021  0.12564273  1
  H  H142  1  0.50184960  0.48224761  0.11388009  1
  O  O143  1  0.95900548  0.37514746  0.46657760  1
  C  C144  1  0.59302794  0.19907885  0.45574183  1
  O  O145  1  0.67477753  0.13959885  0.46196640  1
  H  H146  1  0.85145275  0.24736299  0.44111614  1
  O  O147  1  0.69474374  0.47171500  0.43023497  1
  C  C148  1  0.60533014  0.27337543  0.48504410  1
  C  C149  1  0.52270661  0.33934976  0.48806521  1
  C  C150  1  0.78460886  0.16248367  0.49876167  1
  C  C151  1  0.85907691  0.22520071  0.48326437  1
  C  C152  1  0.88929657  0.15581976  0.58392287  1
  C  C153  1  0.55485727  0.40320570  0.53152391  1
  H  H154  1  0.73706048  0.07463800  0.56006938  1
  C  C155  1  0.97086296  0.21479012  0.57294525  1
  O  O156  1  0.66030444  0.40841205  0.55123521  1
  H  H157  1  0.68839544  0.27991261  0.50991054  1
  O  O158  1  0.84651581  0.05589294  0.65460703  1
  O  O159  1  0.60875515  0.13675891  0.69971686  1
  Zn  Zn160  1  0.75178660  0.02999161  0.73079552  1
  C  C161  1  0.91053073  0.11738296  0.64094986  1
  C  C162  1  0.79740317  0.12647940  0.54865622  1
  C  C163  1  0.94387627  0.25062861  0.52190531  1
  O  O164  1  0.99379893  0.13711928  0.66983182  1
  O  O165  1  0.80288213  0.48635896  0.72191567  1
  C  C166  1  0.55889961  0.13668714  0.74432660  1
  Zn  Zn167  1  0.80970669  0.43477047  0.50113781  1
  C  C168  1  0.94915729  0.26225576  0.87127648  1
  O  O169  1  0.76765429  0.28483561  0.82223292  1
  C  C170  1  0.76170281  0.43976311  0.96189067  1
  C  C171  1  0.86137502  0.03180293  0.84652753  1
  C  C172  1  0.89782025  0.24938709  0.92201166  1
  H  H173  1  0.69987492  0.43089639  0.92793313  1
  O  O174  1  0.86004846  0.10574004  0.85851761  1
  Zn  Zn175  1  0.68971186  0.17197276  0.84950426  1
  C  C176  1  0.87357936  0.45924482  0.94063540  1
  O  O177  1  0.61340809  0.09554046  0.78419220  1
  C  C178  1  0.88473533  0.28386744  0.81904176  1
  H  H179  1  0.80120126  0.26618751  0.93262638  1
  C  C180  1  0.97025417  0.47130994  0.97626344  1
  H  H181  1  0.85821713  0.04919429  0.96042267  1
  Zn  Zn182  1  0.72591549  0.40864778  0.78371261  1
  O  O183  1  0.86447966  0.00837809  0.79691921  1
  C  C184  1  0.89281860  0.46329965  0.88014131  1
  O  O185  1  0.93197915  0.31113954  0.77730679  1
  O  O186  1  0.59665741  0.13949739  0.91996082  1
  O  O187  1  0.79444627  0.46284912  0.85460790  1
  O  O188  1  0.55686876  0.26803445  0.92381561  1
  C  C189  1  0.55103155  0.20199038  0.94539708  1
  O  O190  1  0.55191158  0.40074764  0.75771963  1
  C  C191  1  0.97900371  0.22535346  0.96101533  1
  O  O192  1  0.99229245  0.46719150  0.85746925  1
  Zn  Zn193  1  0.56896802  0.61412490  0.17865597  1
  C  C194  1  0.82798023  0.62568760  0.21436242  1
  O  O195  1  0.79997175  0.89102236  0.07507856  1
  Zn  Zn196  1  0.64474761  0.87245623  0.11816974  1
  O  O197  1  0.65216947  0.92091000  0.19714247  1
  C  C198  1  0.76489891  0.76847884  0.22758270  1
  O  O199  1  0.77218624  0.61576642  0.17231506  1
  C  C200  1  0.71591244  0.91623939  0.24070991  1
  O  O201  1  0.59185821  0.74952376  0.11317746  1
  C  C202  1  0.82335414  0.94638338  0.03884726  1
  H  H203  1  0.71503656  0.76645172  0.18737070  1
  O  O204  1  0.88677306  0.56575714  0.23664898  1
  O  O205  1  0.51033219  0.96371630  0.08662053  1
  O  O206  1  0.50497326  0.71054262  0.23024165  1
  C  C207  1  0.51087969  0.71526648  0.02402809  1
  C  C208  1  0.55321738  0.69683119  0.08139182  1
  H  H209  1  0.51411473  0.85324946  0.01395084  1
  O  O210  1  0.54287949  0.62541288  0.09850870  1
  C  C211  1  0.87016431  0.76653888  0.33502878  1
  O  O212  1  0.92006976  0.76514054  0.39437868  1
  C  C213  1  0.87288375  0.69794313  0.30321561  1
  O  O214  1  0.52801072  0.53364725  0.40840778  1
  C  C215  1  0.82190233  0.83773106  0.31422737  1
  H  H216  1  0.79673383  0.59841560  0.37196137  1
  C  C217  1  0.78589415  0.63725787  0.41040798  1
  H  H218  1  0.81984507  0.89489962  0.33777974  1
  C  C219  1  0.88618435  0.70227542  0.42554745  1
  H  H220  1  0.91769407  0.63889854  0.31792372  1
  Zn  Zn221  1  0.74047429  0.72859165  0.47611448  1
  O  O222  1  0.72578521  0.97833100  0.26772901  1
  C  C223  1  0.69315436  0.60966896  0.44477422  1
  O  O224  1  0.53566098  0.62946703  0.30213192  1
  C  C225  1  0.63011196  0.53634226  0.42794411  1
  H  H226  1  0.53973160  0.68662900  0.38767720  1
  C  C227  1  0.76892942  0.83688472  0.26124806  1
  C  C228  1  0.52091926  0.69928704  0.28144724  1
  C  C229  1  0.91530224  0.68605757  0.48800604  1
  C  C230  1  0.51782511  0.76883656  0.31987656  1
  C  C231  1  0.52829659  0.75159941  0.37645417  1
  C  C232  1  0.81930427  0.70114046  0.25020786  1
  H  H233  1  0.73580831  0.67437796  0.67182739  1
  C  C234  1  0.77036917  0.69290019  0.71199185  1
  O  O235  1  0.67314424  0.90946570  0.72039686  1
  H  H236  1  0.65308365  0.57679027  0.53492991  1
  O  O237  1  0.73283069  0.83769001  0.64881865  1
  C  C238  1  0.86212811  0.55120116  0.72464393  1
  C  C239  1  0.88459175  0.59444165  0.56751647  1
  O  O240  1  0.97506205  0.54523414  0.72215417  1
  C  C241  1  0.71753324  0.84454968  0.69850936  1
  C  C242  1  0.76380346  0.77934308  0.73385063  1
  C  C243  1  0.83322990  0.64223628  0.52373034  1
  O  O244  1  0.95359434  0.63135989  0.60078243  1
  O  O245  1  0.87381598  0.51988953  0.56487972  1
  C  C246  1  0.81545836  0.62693108  0.74886809  1
  C  C247  1  0.71005003  0.61699923  0.50753295  1
  C  C248  1  0.84577990  0.98913220  0.94514470  1
  C  C249  1  0.83186945  0.88709187  0.87102423  1
  C  C250  1  0.77129427  0.63520154  0.80211398  1
  C  C251  1  0.85235904  0.97008235  0.89053707  1
  C  C252  1  0.76984021  0.72058329  0.83560572  1
  O  O253  1  0.80154743  0.73174392  0.88460283  1
  H  H254  1  0.67537686  0.84078248  0.80541868  1
  C  C255  1  0.81107894  0.82583368  0.90660751  1
  H  H256  1  0.73776311  0.57972032  0.82309847  1
  C  C257  1  0.82538697  0.92340999  0.98086749  1
  Zn  Zn258  1  0.90350757  0.72786191  0.77568377  1
  C  C259  1  0.80555366  0.84241940  0.96171513  1
  H  H260  1  0.84617866  0.87325169  0.82797860  1
  C  C261  1  0.72944707  0.78388667  0.79022890  1
  C  C262  1  0.51240335  0.79038430  0.99600857  1
  H  H263  1  0.78014046  0.79425099  0.99110518  1
