# generated using pymatgen
data_NaZnH6C16O9
_symmetry_space_group_name_H-M   'P 1'
_cell_length_a   11.92292586
_cell_length_b   12.75400210
_cell_length_c   23.71372304
_cell_angle_alpha   90.00000000
_cell_angle_beta   90.00000000
_cell_angle_gamma   90.00000000
_symmetry_Int_Tables_number   1
_chemical_formula_structural   NaZnH6C16O9
_chemical_formula_sum   'Na8 Zn8 H48 C128 O72'
_cell_volume   3606.02780300
_cell_formula_units_Z   8
loop_
 _symmetry_equiv_pos_site_id
 _symmetry_equiv_pos_as_xyz
  1  'x, y, z'
loop_
 _atom_site_type_symbol
 _atom_site_label
 _atom_site_symmetry_multiplicity
 _atom_site_fract_x
 _atom_site_fract_y
 _atom_site_fract_z
 _atom_site_occupancy
  C  C0  1  0.44868726  0.24275111  0.02249742  1
  Zn  Zn1  1  0.35441013  0.34861281  0.17378112  1
  O  O2  1  0.30520534  0.27632016  0.09941453  1
  Zn  Zn3  1  0.22380029  0.13104361  0.07650695  1
  O  O4  1  0.32807698  0.39968519  0.03842399  1
  C  C5  1  0.35304989  0.31312767  0.05099221  1
  O  O6  1  0.22978055  0.46635138  0.17107555  1
  O  O7  1  0.05052048  0.08346317  0.07096300  1
  O  O8  1  0.33896045  0.24333407  0.24366144  1
  O  O9  1  0.29757031  0.00422795  0.11295066  1
  C  C10  1  0.33366745  0.24275008  0.34816096  1
  C  C11  1  0.42183101  0.43093947  0.34351978  1
  C  C12  1  0.40080257  0.32391870  0.37159830  1
  O  O13  1  0.24479042  0.06333752  0.34805869  1
  C  C14  1  0.38655751  0.12125067  0.41598138  1
  C  C15  1  0.28410252  0.26555224  0.28655584  1
  O  O16  1  0.00578938  0.01564581  0.28520131  1
  C  C17  1  0.31829358  0.14359803  0.36913641  1
  O  O18  1  0.18739525  0.30311758  0.28113165  1
  H  H19  1  0.37505857  0.04431615  0.43469941  1
  O  O20  1  0.01560832  0.41189377  0.33268134  1
  Zn  Zn21  1  0.18226418  0.46686175  0.31441443  1
  O  O22  1  0.36027782  0.47361570  0.30612962  1
  C  C23  1  0.45919348  0.19542538  0.43891243  1
  C  C24  1  0.46886396  0.29709861  0.41768685  1
  O  O25  1  0.49858777  0.48410873  0.35883064  1
  H  H26  1  0.01835214  0.21567587  0.31431250  1
  O  O27  1  0.14755785  0.39587431  0.49882942  1
  C  C28  1  0.03542702  0.14635070  0.72967247  1
  O  O29  1  0.13505647  0.30237280  0.57401120  1
  O  O30  1  0.36681056  0.26924934  0.70218841  1
  C  C31  1  0.37264072  0.24597558  0.55457635  1
  C  C32  1  0.32716467  0.34156449  0.54078881  1
  O  O33  1  0.06635454  0.17339705  0.67961671  1
  C  C34  1  0.29575692  0.13775273  0.56033153  1
  O  O35  1  0.24974026  0.09082284  0.52226095  1
  O  O36  1  0.26963843  0.11541323  0.61037668  1
  C  C37  1  0.39265291  0.42865618  0.53447901  1
  O  O38  1  0.16987862  0.40116830  0.70566950  1
  C  C39  1  0.35735199  0.06666767  0.74985983  1
  C  C40  1  0.19172864  0.34774458  0.53731630  1
  Zn  Zn41  1  0.20300914  0.26373030  0.65614425  1
  H  H42  1  0.27477654  0.43696007  0.61623614  1
  H  H43  1  0.33355283  0.08177046  0.70499174  1
  Na  Na44  1  0.02977581  0.02586261  0.58552404  1
  C  C45  1  0.48567968  0.22870593  0.55960915  1
  C  C46  1  0.11377011  0.47989856  0.69434333  1
  Na  Na47  1  0.17316772  0.07777010  0.85567274  1
  H  H48  1  0.44173951  0.20420170  0.86656991  1
  O  O49  1  0.47916641  0.43977291  0.92191660  1
  O  O50  1  0.27834408  0.23781200  0.92128549  1
  C  C51  1  0.41449038  0.13664085  0.83931955  1
  O  O52  1  0.22014319  0.11762408  0.98124884  1
  C  C53  1  0.37986361  0.26595167  0.75380618  1
  C  C54  1  0.42382643  0.16871429  0.98118286  1
  C  C55  1  0.48873940  0.09435018  0.95878922  1
  C  C56  1  0.29423830  0.17788532  0.95901953  1
  C  C57  1  0.38433253  0.15310142  0.78344023  1
  O  O58  1  0.39332907  0.34564059  0.78158586  1
  O  O59  1  0.10153606  0.10204152  0.76150450  1
  C  C60  1  0.42010655  0.03216055  0.86201236  1
  O  O61  1  0.05173640  0.29200214  0.86289090  1
  O  O62  1  0.01154815  0.14457918  0.90299953  1
  C  C63  1  0.01247902  0.24576918  0.90180381  1
  O  O64  1  0.44541658  0.00945182  0.91521455  1
  C  C65  1  0.31890487  0.61948202  0.10600542  1
  C  C66  1  0.28983748  0.82276786  0.13322879  1
  Zn  Zn67  1  0.03625394  0.93879780  0.20620315  1
  C  C68  1  0.35233811  0.79404602  0.08444278  1
  H  H69  1  0.38395255  0.85272510  0.05350295  1
  C  C70  1  0.21744699  0.55635672  0.19009321  1
  O  O71  1  0.21366270  0.95862558  0.18996416  1
  C  C72  1  0.24467610  0.74985852  0.17105559  1
  C  C73  1  0.26825236  0.93266998  0.14813836  1
  C  C74  1  0.37165012  0.69127722  0.07032054  1
  C  C75  1  0.25976279  0.64671425  0.15538399  1
  H  H76  1  0.20272068  0.77944748  0.21037667  1
  O  O77  1  0.43215845  0.64175234  0.02055529  1
  H  H78  1  0.33410421  0.53516586  0.09714601  1
  O  O79  1  0.17357037  0.57144841  0.23754671  1
  O  O80  1  0.49756101  0.56495760  0.20118033  1
  C  C81  1  0.15050174  0.69250095  0.37874603  1
  O  O82  1  0.05923280  0.71698904  0.39764987  1
  H  H83  1  0.11036607  0.90172746  0.36253219  1
  C  C84  1  0.23359167  0.77160360  0.35884757  1
  C  C85  1  0.27517604  0.95751325  0.34847578  1
  H  H86  1  0.37393712  0.65985798  0.35176792  1
  C  C87  1  0.34556528  0.74188941  0.34885277  1
  O  O88  1  0.17651889  0.59484899  0.37953267  1
  C  C89  1  0.19848757  0.87610672  0.35570834  1
  C  C90  1  0.42222716  0.82302612  0.34352051  1
  C  C91  1  0.38666454  0.92791585  0.34329860  1
  Na  Na92  1  0.06319453  0.57814968  0.47485147  1
  H  H93  1  0.45693829  0.98512002  0.33989252  1
  C  C94  1  0.26816192  0.57648333  0.55994061  1
  H  H95  1  0.02759511  0.66719450  0.66866721  1
  C  C96  1  0.15118639  0.54206818  0.64288355  1
  C  C97  1  0.20678442  0.67071818  0.55401929  1
  C  C98  1  0.12406548  0.69663713  0.59195829  1
  O  O99  1  0.29678231  0.85171677  0.69471031  1
  C  C100  1  0.05579696  0.79803347  0.58427858  1
  C  C101  1  0.09110059  0.63732209  0.63761680  1
  O  O102  1  0.34317461  0.54168600  0.52374504  1
  C  C103  1  0.23604637  0.51353084  0.60735307  1
  Na  Na104  1  0.40627704  0.67715030  0.67239665  1
  O  O105  1  0.08060152  0.85229115  0.54340579  1
  H  H106  1  0.22686832  0.72206997  0.51877308  1
  C  C107  1  0.34895458  0.85467999  0.73798881  1
  O  O108  1  0.03033762  0.50836344  0.72271473  1
  O  O109  1  0.48442868  0.81092239  0.60739841  1
  H  H110  1  0.48105370  0.85430043  0.50705108  1
  H  H111  1  0.41259404  0.86841460  0.84420900  1
  O  O112  1  0.27185148  0.70531602  0.91960322  1
  O  O113  1  0.21749616  0.64942119  0.83805558  1
  O  O114  1  0.39526947  0.77457038  0.75683644  1
  H  H115  1  0.13517241  0.81291130  0.96024678  1
  C  C116  1  0.07806616  0.83413213  0.92666102  1
  C  C117  1  0.20307218  0.70664195  0.87884034  1
  C  C118  1  0.09720163  0.77614083  0.87822420  1
  C  C119  1  0.40049743  0.94876984  0.82465354  1
  H  H120  1  0.05403513  0.74091456  0.78802524  1
  C  C121  1  0.36831627  0.96222444  0.76993490  1
  C  C122  1  0.03002109  0.78554909  0.82862749  1
  C  C123  1  0.49293268  0.68295393  0.97898543  1
  Na  Na124  1  0.28980627  0.51909901  0.94300924  1
  O  O125  1  0.09755089  0.50452076  0.93164577  1
  H  H126  1  0.46185044  0.84941383  0.99207514  1
  C  C127  1  0.62639507  0.15543403  0.02902707  1
  H  H128  1  0.84385304  0.35384828  0.09719186  1
  O  O129  1  0.75624251  0.11182354  0.17864668  1
  H  H130  1  0.71128058  0.14749144  0.04984639  1
  H  H131  1  0.86245352  0.17476980  0.08011316  1
  H  H132  1  0.68838082  0.45733700  0.07742855  1
  C  C133  1  0.90170460  0.42389076  0.02000697  1
  C  C134  1  0.88618720  0.23131330  0.04727363  1
  C  C135  1  0.87469097  0.33814564  0.05707996  1
  H  H136  1  0.56870686  0.27927528  0.08844868  1
  O  O137  1  0.98234560  0.05871319  0.15343351  1
  C  C138  1  0.54912235  0.22946616  0.05123450  1
  C  C139  1  0.97762118  0.04388341  0.10065535  1
  O  O140  1  0.52346308  0.42371954  0.15289104  1
  C  C141  1  0.75668449  0.01858187  0.17181090  1
  C  C142  1  0.89541101  0.25589025  0.44278481  1
  O  O143  1  0.92519104  0.45627157  0.40988152  1
  C  C144  1  0.96344653  0.39076433  0.37665256  1
  H  H145  1  0.51539058  0.17207828  0.47550703  1
  C  C146  1  0.89917130  0.07446120  0.42327974  1
  C  C147  1  0.94648270  0.09457534  0.36891590  1
  C  C148  1  0.87866293  0.15247494  0.46208440  1
  C  C149  1  0.95890317  0.00218218  0.33218616  1
  H  H150  1  0.71643119  0.06631137  0.42996288  1
  H  H151  1  0.87105993  0.32550701  0.46686030  1
  C  C152  1  0.94514652  0.27647235  0.39162536  1
  H  H153  1  0.52557539  0.35750402  0.43517408  1
  C  C154  1  0.68489785  0.02953097  0.46941146  1
  H  H155  1  0.85824990  0.47731301  0.49258770  1
  C  C156  1  0.97924633  0.19534340  0.35540207  1
  C  C157  1  0.86178094  0.26263308  0.72078307  1
  C  C158  1  0.74249929  0.03787880  0.62535269  1
  C  C159  1  0.56267052  0.31225887  0.54881927  1
  H  H160  1  0.91499668  0.27920603  0.68502789  1
  C  C161  1  0.79346901  0.34129424  0.61271887  1
  O  O162  1  0.71494746  0.39592772  0.70499222  1
  C  C163  1  0.82375981  0.35258320  0.55680555  1
  C  C164  1  0.74286563  0.05900469  0.51744488  1
  C  C165  1  0.74875008  0.41853321  0.64929982  1
  O  O166  1  0.69192545  0.08901390  0.65999562  1
  H  H167  1  0.79107562  0.25954310  0.62682280  1
  O  O168  1  0.83029597  0.12928871  0.51832136  1
  H  H169  1  0.85371862  0.28530425  0.53405505  1
  C  C170  1  0.76293648  0.31664639  0.73578461  1
  C  C171  1  0.82653534  0.45630060  0.53649425  1
  H  H172  1  0.65462756  0.29928184  0.55224328  1
  H  H173  1  0.52166351  0.15148221  0.57207351  1
  C  C174  1  0.69311596  0.01127358  0.56542746  1
  H  H175  1  0.55778801  0.48636479  0.53631736  1
  C  C176  1  0.50888111  0.41126487  0.53998516  1
  C  C177  1  0.53304680  0.49280161  0.95376139  1
  Na  Na178  1  0.70308522  0.36136567  0.94525878  1
  O  O179  1  0.71746145  0.07287332  0.88763570  1
  C  C180  1  0.87780711  0.15168244  0.80227257  1
  O  O181  1  0.64060298  0.23003302  0.88906538  1
  C  C182  1  0.70413600  0.16007562  0.86949716  1
  C  C183  1  0.77299032  0.19518031  0.81740278  1
  Na  Na184  1  0.62965951  0.04741157  0.76228249  1
  H  H185  1  0.91519974  0.08363750  0.82519860  1
  O  O186  1  0.70228847  0.48315536  0.86126310  1
  H  H187  1  0.64131943  0.29969886  0.80077476  1
  C  C188  1  0.96124841  0.28549410  0.95922934  1
  C  C189  1  0.95212407  0.38957300  0.96978027  1
  C  C190  1  0.71958484  0.27088759  0.78455988  1
  C  C191  1  0.92743084  0.20145628  0.99511806  1
  H  H192  1  0.94408333  0.11687157  0.98358360  1
  C  C193  1  0.59459325  0.09485105  0.98212227  1
  C  C194  1  0.92303906  0.18962289  0.75161504  1
  O  O195  1  0.58061407  0.45505804  0.99680577  1
  H  H196  1  0.66155527  0.04124843  0.96669082  1
  C  C197  1  0.99962947  0.46790911  0.92239503  1
  O  O198  1  0.94619352  0.49672020  0.88205892  1
  H  H199  1  0.63825262  0.78609371  0.03061584  1
  C  C200  1  0.69961038  0.89938509  0.09821507  1
  C  C201  1  0.78670895  0.96456368  0.11257230  1
  C  C202  1  0.87616419  0.74159431  0.20762657  1
  C  C203  1  0.70239519  0.84417534  0.04503446  1
  H  H204  1  0.96723911  0.65421423  0.11196324  1
  C  C205  1  0.88302710  0.92817959  0.02491189  1
  C  C206  1  0.82867722  0.56118279  0.08175949  1
  H  H207  1  0.62687972  0.89611231  0.12561491  1
  C  C208  1  0.71816961  0.62622704  0.18576447  1
  C  C209  1  0.88200036  0.62645120  0.12128729  1
  C  C210  1  0.82430628  0.66656520  0.16927215  1
  H  H211  1  0.67378598  0.64417315  0.22557344  1
  O  O212  1  0.88247148  0.52596315  0.02734334  1
  C  C213  1  0.67594508  0.54926264  0.15243180  1
  C  C214  1  0.87897429  0.97986673  0.07791020  1
  C  C215  1  0.73047801  0.51675317  0.10286634  1
  O  O216  1  0.70165734  0.95849554  0.20643788  1
  O  O217  1  0.96737524  0.78348473  0.19505811  1
  C  C218  1  0.79326082  0.86074058  0.00980618  1
  C  C219  1  0.55858013  0.50746047  0.17000711  1
  O  O220  1  0.89946630  0.92496068  0.34315824  1
  O  O221  1  0.57846173  0.71244592  0.33171449  1
  O  O222  1  0.61737090  0.88010794  0.34067370  1
  C  C223  1  0.54721739  0.80555310  0.33744701  1
  Zn  Zn224  1  0.51729394  0.59309135  0.28317191  1
  Zn  Zn225  1  0.75704812  0.89295158  0.28854020  1
  H  H226  1  0.54721366  0.95925480  0.42530691  1
  C  C227  1  0.58850640  0.96576445  0.46695469  1
  O  O228  1  0.83181464  0.75501554  0.25604132  1
  H  H229  1  0.87235140  0.99544083  0.43337605  1
  O  O230  1  0.86256155  0.63903931  0.49472722  1
  C  C231  1  0.60988134  0.93633718  0.56585088  1
  O  O232  1  0.78367623  0.73004746  0.56058185  1
  O  O233  1  0.62502353  0.85709363  0.65801123  1
  O  O234  1  0.77247696  0.65571221  0.69185038  1
  Zn  Zn235  1  0.81043768  0.80321885  0.65100653  1
  O  O236  1  0.60395848  0.61408730  0.66877371  1
  C  C237  1  0.55064855  0.91610682  0.51522917  1
  C  C238  1  0.70429958  0.60386562  0.66352645  1
  C  C239  1  0.81865526  0.64741859  0.54112882  1
  C  C240  1  0.56705589  0.86717049  0.61523319  1
  C  C241  1  0.79475763  0.53581391  0.57113397  1
  O  O242  1  0.89560797  0.82024017  0.74210507  1
  O  O243  1  0.83303483  0.99215976  0.63743263  1
  C  C244  1  0.75524038  0.51472393  0.62396686  1
  O  O245  1  0.98590737  0.82565753  0.62145960  1
  C  C246  1  0.55434998  0.61320668  0.94421202  1
  O  O247  1  0.78592266  0.93118329  0.78523831  1
  C  C248  1  0.69724761  0.57976536  0.86320618  1
  H  H249  1  0.68276612  0.77690131  0.85259946  1
  C  C250  1  0.93871861  0.85228674  0.83609142  1
  H  H251  1  0.79454677  0.81831618  0.97041549  1
  C  C252  1  0.90866147  0.90253758  0.88711590  1
  H  H253  1  0.83267767  0.95043890  0.89163644  1
  C  C254  1  0.63631094  0.75223579  0.88963986  1
  H  H255  1  0.57873873  0.90987930  0.91508589  1
  O  O256  1  0.74885357  0.63411000  0.82748164  1
  C  C257  1  0.62630425  0.64213092  0.90361222  1
  C  C258  1  0.97930133  0.89558521  0.93305703  1
  C  C259  1  0.86691117  0.87092516  0.78438821  1
  C  C260  1  0.57530050  0.82683753  0.92201660  1
  O  O261  1  0.96921226  0.94782453  0.99092991  1
  C  C262  1  0.51127662  0.79098316  0.96757339  1
  Na  Na263  1  0.86671941  0.52303626  0.77455073  1
