# generated using pymatgen
data_Cu2H4C9N4O5
_symmetry_space_group_name_H-M   'P 1'
_cell_length_a   10.40527435
_cell_length_b   21.81728877
_cell_length_c   26.24262800
_cell_angle_alpha   90.00000000
_cell_angle_beta   90.00000000
_cell_angle_gamma   90.00000000
_symmetry_Int_Tables_number   1
_chemical_formula_structural   Cu2H4C9N4O5
_chemical_formula_sum   'Cu32 H64 C144 N64 O80'
_cell_volume   5957.46691989
_cell_formula_units_Z   16
loop_
 _symmetry_equiv_pos_site_id
 _symmetry_equiv_pos_as_xyz
  1  'x, y, z'
loop_
 _atom_site_type_symbol
 _atom_site_label
 _atom_site_symmetry_multiplicity
 _atom_site_fract_x
 _atom_site_fract_y
 _atom_site_fract_z
 _atom_site_occupancy
  H  H0  1  0.23449637  0.16328352  0.21049671  1
  N  N1  1  0.41091796  0.28829068  0.08423493  1
  C  C2  1  0.03307091  0.00148795  0.08034945  1
  C  C3  1  0.20647321  0.13029402  0.18210905  1
  N  N4  1  0.43193179  0.21973165  0.18510342  1
  C  C5  1  0.15067938  0.09895847  0.09731133  1
  C  C6  1  0.11268092  0.02719045  0.16864491  1
  C  C7  1  0.10546099  0.04349998  0.11734154  1
  C  C8  1  0.26666596  0.19945294  0.10336715  1
  O  O9  1  0.22933606  0.40609775  0.16436811  1
  C  C10  1  0.49745249  0.04661341  0.19750736  1
  N  N11  1  0.22309972  0.23106349  0.06342659  1
  C  C12  1  0.20114745  0.14476894  0.13039196  1
  C  C13  1  0.05440736  0.30644781  0.14026592  1
  H  H14  1  0.11197817  0.31589566  0.10791129  1
  H  H15  1  0.13273317  0.11432163  0.05864775  1
  N  N16  1  0.37576414  0.22497743  0.12016976  1
  C  C17  1  0.13615221  0.38877633  0.19619366  1
  C  C18  1  0.04763734  0.33732602  0.18546118  1
  H  H19  1  0.46794366  0.03706750  0.23692726  1
  N  N20  1  0.32982216  0.28997898  0.04976581  1
  C  C21  1  0.16255725  0.07199813  0.19944721  1
  N  N22  1  0.08368333  0.21547618  0.02841386  1
  C  C23  1  0.46030389  0.16255559  0.20760511  1
  N  N24  1  0.35790683  0.26643549  0.22938830  1
  Cu  Cu25  1  0.32232317  0.47536599  0.15896141  1
  O  O26  1  0.48398650  0.45806208  0.08215808  1
  O  O27  1  0.01086162  0.02256959  0.03458376  1
  N  N28  1  0.23832968  0.48996390  0.09084231  1
  O  O29  1  0.11525422  0.41748166  0.23396886  1
  O  O30  1  0.08091363  0.43449763  0.01041718  1
  O  O31  1  0.17990777  0.27533292  0.40459869  1
  N  N32  1  0.19351292  0.12202987  0.43496571  1
  H  H33  1  0.32129265  0.19459809  0.38691021  1
  O  O34  1  0.27294363  0.36527796  0.41563615  1
  N  N35  1  0.12449384  0.08416860  0.37999673  1
  N  N36  1  0.18535177  0.09108776  0.47380110  1
  C  C37  1  0.27991315  0.31177549  0.40557461  1
  O  O38  1  0.20815080  0.10487146  0.28399758  1
  N  N39  1  0.37024861  0.24178025  0.27058094  1
  C  C40  1  0.41181314  0.28657421  0.39877645  1
  C  C41  1  0.41017745  0.22186451  0.38837774  1
  N  N42  1  0.44289187  0.17085993  0.25802415  1
  N  N43  1  0.06659138  0.03742783  0.38925126  1
  O  O44  1  0.13739360  0.00996671  0.27763172  1
  C  C45  1  0.16790561  0.06393217  0.25747072  1
  Cu  Cu46  1  0.09590789  0.01280868  0.46292419  1
  N  N47  1  0.47539585  0.11227146  0.31208222  1
  N  N48  1  0.48902200  0.01207636  0.35495008  1
  N  N49  1  0.47070235  0.02949412  0.31158693  1
  O  O50  1  0.00526480  0.29790358  0.49560500  1
  C  C51  1  0.07913954  0.32908826  0.64946178  1
  O  O52  1  0.18792876  0.18422599  0.59642497  1
  C  C53  1  0.20600024  0.30518625  0.67466831  1
  N  N54  1  0.31107918  0.28220204  0.64926180  1
  N  N55  1  0.22938861  0.29919592  0.72515659  1
  N  N56  1  0.37751195  0.27201493  0.73516728  1
  Cu  Cu57  1  0.06685735  0.11878281  0.61598767  1
  H  H58  1  0.23184883  0.21110555  0.61864720  1
  O  O59  1  0.12804335  0.06777841  0.57002745  1
  H  H60  1  0.09250717  0.03492719  0.55362810  1
  O  O61  1  0.00069063  0.15297629  0.67239159  1
  N  N62  1  0.15171387  0.47862165  0.71750604  1
  Cu  Cu63  1  0.23965074  0.13207685  0.54257074  1
  H  H64  1  0.37109039  0.36368022  0.68856670  1
  H  H65  1  0.11391469  0.27750170  0.57847689  1
  N  N66  1  0.42676889  0.26428452  0.69344991  1
  O  O67  1  0.38868831  0.40763660  0.69276632  1
  H  H68  1  0.30265811  0.42596058  0.68453988  1
  N  N69  1  0.13460215  0.47051504  0.65326631  1
  H  H70  1  0.06116704  0.48269800  0.72788799  1
  H  H71  1  0.40556627  0.01051470  0.73030937  1
  H  H72  1  0.03712465  0.37847273  0.71934718  1
  C  C73  1  0.05107515  0.30932373  0.60033392  1
  C  C74  1  0.01086155  0.36794530  0.67999372  1
  N  N75  1  0.11413848  0.17198633  0.97715801  1
  C  C76  1  0.48534521  0.04964541  0.92524312  1
  O  O77  1  0.27168273  0.05614210  0.95571622  1
  C  C78  1  0.45676869  0.11631750  0.77816426  1
  O  O79  1  0.34297720  0.29702883  0.84752361  1
  O  O80  1  0.40565888  0.12704835  0.98374822  1
  N  N81  1  0.12833979  0.36637542  0.83414121  1
  Cu  Cu82  1  0.26776888  0.23335672  0.89910779  1
  Cu  Cu83  1  0.16071250  0.28494382  0.80456716  1
  Cu  Cu84  1  0.48372558  0.33917936  0.82666111  1
  O  O85  1  0.48284125  0.39465074  0.88035597  1
  O  O86  1  0.23530116  0.44568011  0.90070927  1
  N  N87  1  0.45755011  0.22036056  0.91504058  1
  H  H88  1  0.19028433  0.48068338  0.81661754  1
  C  C89  1  0.37500175  0.07792898  0.95592401  1
  Cu  Cu90  1  0.41835068  0.23347941  0.81434520  1
  N  N91  1  0.10705723  0.23993966  0.86073776  1
  N  N92  1  0.11923126  0.03333571  0.83305325  1
  Cu  Cu93  1  0.29697760  0.36968350  0.87960118  1
  N  N94  1  0.02189998  0.37100852  0.85259500  1
  H  H95  1  0.02298690  0.17054793  0.77000589  1
  N  N96  1  0.02671528  0.13489752  0.97534653  1
  C  C97  1  0.28342911  0.49906180  0.91426677  1
  Cu  Cu98  1  0.00469662  0.44189245  0.89738274  1
  C  C99  1  0.00154554  0.39549047  0.99507784  1
  O  O100  1  0.34526166  0.11072160  0.77235928  1
  H  H101  1  0.38107767  0.64164615  0.10350605  1
  O  O102  1  0.40132942  0.55193390  0.14923391  1
  C  C103  1  0.43565938  0.73817374  0.04541054  1
  Cu  Cu104  1  0.17609405  0.74388384  0.02852244  1
  O  O105  1  0.33482967  0.70758293  0.02981829  1
  O  O106  1  0.02757397  0.78776031  0.02994109  1
  N  N107  1  0.15272166  0.52546001  0.08393496  1
  H  H108  1  0.09029876  0.98142419  0.18231001  1
  O  O109  1  0.10211001  0.60943975  0.01073326  1
  C  C110  1  0.46989741  0.66322433  0.11678262  1
  Cu  Cu111  1  0.08092555  0.52273918  0.01059987  1
  O  O112  1  0.01103134  0.95021330  0.09261251  1
  O  O113  1  0.45302982  0.78720475  0.02379803  1
  C  C114  1  0.49346913  0.57841099  0.17644006  1
  H  H115  1  0.47929220  0.50395926  0.01278438  1
  N  N116  1  0.13422849  0.87241177  0.47509780  1
  H  H117  1  0.35597696  0.83495172  0.32620726  1
  N  N118  1  0.27571906  0.94007716  0.43214058  1
  O  O119  1  0.17590500  0.72291404  0.29011627  1
  Cu  Cu120  1  0.00924509  0.98650802  0.32372240  1
  C  C121  1  0.14598103  0.76362222  0.31827446  1
  O  O122  1  0.42145469  0.87406364  0.32462022  1
  O  O123  1  0.21941157  0.80554700  0.33231830  1
  N  N124  1  0.19327238  0.90306986  0.42014756  1
  H  H125  1  0.05770315  0.84747600  0.37665232  1
  C  C126  1  0.00827754  0.75835986  0.34263592  1
  H  H127  1  0.16667628  0.82945872  0.47527031  1
  Cu  Cu128  1  0.49830336  0.91849770  0.37987784  1
  N  N129  1  0.25971608  0.94884220  0.49607890  1
  N  N130  1  0.22344046  0.56605683  0.68584648  1
  Cu  Cu131  1  0.26057990  0.86926847  0.70584222  1
  C  C132  1  0.12152498  0.91410026  0.57074384  1
  H  H133  1  0.28005881  0.75013979  0.69364391  1
  C  C134  1  0.21318243  0.53618593  0.72930653  1
  O  O135  1  0.12359715  0.95371708  0.65495427  1
  O  O136  1  0.28854523  0.78718637  0.71215511  1
  C  C137  1  0.17322854  0.94733116  0.61248585  1
  N  N138  1  0.17352947  0.51805712  0.63439488  1
  C  C139  1  0.00247073  0.89513299  0.59351092  1
  H  H140  1  0.26539325  0.97402361  0.60942646  1
  O  O141  1  0.40680838  0.91494627  0.68718473  1
  C  C142  1  0.17333901  0.91395763  0.51707365  1
  C  C143  1  0.25703049  0.56342802  0.78066848  1
  Cu  Cu144  1  0.02699419  0.98725744  0.97241984  1
  O  O145  1  0.39353113  0.73724967  0.79709116  1
  C  C146  1  0.08315981  0.64148848  0.97141122  1
  C  C147  1  0.01696467  0.62217117  0.92395010  1
  O  O148  1  0.13473601  0.69405948  0.97073953  1
  N  N149  1  0.13290603  0.98682932  0.80766975  1
  C  C150  1  0.27800348  0.54372651  0.86985753  1
  O  O151  1  0.40935094  0.88710852  0.83701935  1
  O  O152  1  0.04890411  0.94362688  0.91159172  1
  O  O153  1  0.32831079  0.51472141  0.95379962  1
  H  H154  1  0.33215144  0.62296170  0.91939179  1
  C  C155  1  0.23293586  0.52530797  0.82213253  1
  H  H156  1  0.06266588  0.70027850  0.89054165  1
  C  C157  1  0.31544119  0.60397491  0.88078310  1
  O  O158  1  0.40931299  0.72257650  0.88174950  1
  C  C159  1  0.31390402  0.62154701  0.78650270  1
  C  C160  1  0.34007462  0.64045681  0.83674306  1
  H  H161  1  0.11391197  0.89004972  0.78420754  1
  Cu  Cu162  1  0.27878691  0.79885579  0.78522587  1
  C  C163  1  0.38546796  0.70449637  0.83980675  1
  H  H164  1  0.05077000  0.95861470  0.87747316  1
  H  H165  1  0.36373493  0.98106150  0.90536290  1
  N  N166  1  0.01899631  0.78806949  0.90642495  1
  C  C167  1  0.01895192  0.65907395  0.88008963  1
  O  O168  1  0.17449747  0.86324943  0.76954367  1
  N  N169  1  0.05946910  0.83292894  0.88369187  1
  H  H170  1  0.04677647  0.88010835  0.90471889  1
  C  C171  1  0.46473590  0.99510005  0.90121876  1
  H  H172  1  0.31539824  0.65254122  0.75545189  1
  C  C173  1  0.66052645  0.39029951  0.05923974  1
  O  O174  1  0.70661536  0.05123281  0.02287372  1
  C  C175  1  0.78195361  0.35041697  0.05364657  1
  C  C176  1  0.82556700  0.17942726  0.13065388  1
  C  C177  1  0.59232680  0.07574182  0.09961705  1
  C  C178  1  0.89972536  0.37588856  0.08306410  1
  C  C179  1  0.57531443  0.40245504  0.10093174  1
  C  C180  1  0.88974823  0.25405005  0.18578822  1
  H  H181  1  0.77112498  0.14414876  0.11083489  1
  O  O182  1  0.57612333  0.38446326  0.14316629  1
  O  O183  1  0.79439392  0.19395554  0.17643686  1
  C  C184  1  0.54501505  0.12277094  0.13020041  1
  O  O185  1  0.63173981  0.14504489  0.03486929  1
  C  C186  1  0.92239779  0.37073499  0.03760960  1
  C  C187  1  0.61846185  0.42742337  0.01850964  1
  C  C188  1  0.64480654  0.09015636  0.05011747  1
  C  C189  1  0.95922705  0.32375503  0.22569718  1
  C  C190  1  0.58933392  0.01523217  0.11780554  1
  C  C191  1  0.92514069  0.20975566  0.10592145  1
  N  N192  1  0.92331946  0.14861338  0.02881874  1
  H  H193  1  0.75610343  0.30042994  0.06083589  1
  H  H194  1  0.90372571  0.41484178  0.11041801  1
  C  C195  1  0.96355637  0.25762697  0.14037723  1
  C  C196  1  0.97608579  0.19406589  0.05343585  1
  H  H197  1  0.54027262  0.17025247  0.11688537  1
  O  O198  1  0.87353358  0.28072457  0.22881637  1
  C  C199  1  0.52212054  0.46719151  0.03694355  1
  C  C200  1  0.50696512  0.10767920  0.17971990  1
  H  H201  1  0.70970671  0.49859552  0.04428796  1
  C  C202  1  0.54183650  0.00151983  0.16559740  1
  O  O203  1  0.74955137  0.05490914  0.32201436  1
  C  C204  1  0.64153899  0.29576080  0.39353720  1
  C  C205  1  0.87115629  0.16470457  0.42893823  1
  Cu  Cu206  1  0.85280085  0.04875897  0.37762735  1
  O  O207  1  0.85397039  0.13371252  0.38695354  1
  C  C208  1  0.63950585  0.23438524  0.38018578  1
  Cu  Cu209  1  0.99805331  0.28430909  0.42591225  1
  H  H210  1  0.72419387  0.20942135  0.36451717  1
  O  O211  1  0.76831361  0.38439499  0.39414070  1
  O  O212  1  0.86547448  0.29651703  0.38077310  1
  H  H213  1  0.66727423  0.07087866  0.32536939  1
  N  N214  1  0.52376798  0.07934574  0.38963879  1
  C  C215  1  0.76842097  0.33078872  0.39074946  1
  C  C216  1  0.76528722  0.16220859  0.46407387  1
  O  O217  1  0.96951736  0.19515781  0.43641500  1
  N  N218  1  0.94413268  0.03360361  0.49656449  1
  C  C219  1  0.52142192  0.32258067  0.40075563  1
  H  H220  1  0.96326711  0.35164561  0.26265152  1
  C  C221  1  0.50703874  0.12906270  0.35991256  1
  C  C222  1  0.71630778  0.19552051  0.49847791  1
  C  C223  1  0.52791351  0.19718694  0.38040831  1
  H  H224  1  0.51010207  0.37198789  0.40636349  1
  C  C225  1  0.86492552  0.38035421  0.60742869  1
  O  O226  1  0.82622844  0.35296734  0.50893134  1
  O  O227  1  0.62520337  0.36583926  0.72051828  1
  C  C228  1  0.89721151  0.39103288  0.65783157  1
  C  C229  1  0.89964351  0.19045851  0.67354844  1
  C  C230  1  0.92301836  0.33115749  0.52419232  1
  H  H231  1  0.73830498  0.27558963  0.68257729  1
  C  C232  1  0.88008406  0.22116738  0.72489903  1
  O  O233  1  0.84119757  0.19928532  0.63556651  1
  C  C234  1  0.78973978  0.26696159  0.71893743  1
  C  C235  1  0.82243375  0.43659529  0.68651656  1
  C  C236  1  0.94493902  0.33992370  0.57915393  1
  H  H237  1  0.77849999  0.39994115  0.59245267  1
  O  O238  1  0.71661649  0.45596763  0.66377349  1
  Cu  Cu239  1  0.56090636  0.43639018  0.68200714  1
  N  N240  1  0.59192879  0.48677216  0.74880471  1
  C  C241  1  0.68167246  0.07715280  0.53751675  1
  O  O242  1  0.85543998  0.45260850  0.72822878  1
  C  C243  1  0.58186888  0.07946108  0.57422148  1
  H  H244  1  0.74041342  0.23183034  0.52503465  1
  O  O245  1  0.57994411  0.00789733  0.59466979  1
  H  H246  1  0.92321435  0.07209531  0.51591570  1
  C  C247  1  0.50512344  0.01342923  0.74315493  1
  C  C248  1  0.73735271  0.01757546  0.53200837  1
  O  O249  1  0.51373373  0.11829961  0.58744973  1
  C  C250  1  0.71475874  0.13048766  0.50776475  1
  O  O251  1  0.71668297  0.22024545  0.96200110  1
  Cu  Cu252  1  0.83203121  0.07862946  0.97677801  1
  C  C253  1  0.67884588  0.07155824  0.78747992  1
  Cu  Cu254  1  0.56247626  0.17313596  0.97406264  1
  Cu  Cu255  1  0.73360568  0.48164034  0.79838654  1
  O  O256  1  0.51297821  0.16815095  0.79052134  1
  C  C257  1  0.67245392  0.42594243  0.96717054  1
  C  C258  1  0.98297845  0.22542858  0.86440790  1
  C  C259  1  0.75558597  0.29726872  0.76432295  1
  H  H260  1  0.95345733  0.19504361  0.93138121  1
  N  N261  1  0.52839381  0.22399028  0.87907854  1
  C  C262  1  0.94819300  0.20608802  0.77019562  1
  H  H263  1  0.57590015  0.48101864  0.85527430  1
  O  O264  1  0.63266035  0.37518280  0.80442893  1
  Cu  Cu265  1  0.71799598  0.19551553  0.89289039  1
  H  H266  1  0.71422144  0.11440403  0.80498006  1
  O  O267  1  0.98311938  0.38105805  0.94952593  1
  N  N268  1  0.71834873  0.42884207  0.92762813  1
  C  C269  1  0.55420494  0.06422417  0.76993876  1
  C  C270  1  0.59988367  0.08241322  0.92868050  1
  H  H271  1  0.78999508  0.31130519  0.84588765  1
  H  H272  1  0.78751492  0.21517732  0.98426816  1
  N  N273  1  0.90550880  0.20037590  0.89822549  1
  N  N274  1  0.69073615  0.11287340  0.93188946  1
  C  C275  1  0.81240633  0.28301911  0.81184913  1
  C  C276  1  0.91165107  0.23999271  0.81276360  1
  C  C277  1  0.89504067  0.01397775  0.79535215  1
  H  H278  1  0.53746515  0.40566968  0.90807325  1
  N  N279  1  0.90021179  0.48675357  0.84020476  1
  C  C280  1  0.67487721  0.35234441  0.76314595  1
  N  N281  1  0.95667944  0.05366291  0.82513782  1
  C  C282  1  0.75018781  0.01793323  0.77804607  1
  N  N283  1  0.98740064  0.80571586  0.22554500  1
  C  C284  1  0.54453876  0.93615548  0.18708809  1
  O  O285  1  0.82608745  0.53404529  0.09712336  1
  C  C286  1  0.76801212  0.54087511  0.05703808  1
  O  O287  1  0.58581183  0.90077741  0.15811187  1
  N  N288  1  0.86950264  0.75039169  0.21451155  1
  C  C289  1  0.88538151  0.60249168  0.11038042  1
  C  C290  1  0.90163633  0.69040382  0.05285912  1
  C  C291  1  0.54853511  0.63767267  0.15488183  1
  N  N292  1  0.85870907  0.81298592  0.15283813  1
  C  C293  1  0.80902734  0.76088588  0.17137608  1
  H  H294  1  0.71133142  0.64927566  0.20049602  1
  C  C295  1  0.68729545  0.72720871  0.14539444  1
  H  H296  1  0.66220528  0.78614249  0.08068007  1
  H  H297  1  0.97078727  0.70938589  0.07853067  1
  C  C298  1  0.65581409  0.67143609  0.17048625  1
  C  C299  1  0.76461248  0.59796480  0.02997908  1
  C  C300  1  0.62389895  0.74686337  0.10263990  1
  H  H301  1  0.79745979  0.83897244  0.23797612  1
  O  O302  1  0.53209610  0.55338148  0.21373530  1
  C  C303  1  0.84543197  0.63290272  0.06362133  1
  O  O304  1  0.94654568  0.60961465  0.14606575  1
  N  N305  1  0.98225421  0.84171176  0.18921461  1
  H  H306  1  0.61707591  0.97870599  0.09350904  1
  C  C307  1  0.50876351  0.71457869  0.08975767  1
  O  O308  1  0.52025154  0.92385098  0.23633932  1
  C  C309  1  0.86593847  0.71881045  0.00898455  1
  C  C310  1  0.60612596  0.72935029  0.37187848  1
  O  O311  1  0.65628699  0.90968635  0.34788828  1
  C  C312  1  0.78112120  0.80749725  0.40079869  1
  C  C313  1  0.98396666  0.81120325  0.36871972  1
  O  O314  1  0.75209466  0.85959031  0.26310650  1
  C  C315  1  0.70800457  0.66250884  0.32341088  1
  Cu  Cu316  1  0.72061005  0.95667927  0.39773369  1
  O  O317  1  0.86911517  0.96621381  0.36538981  1
  Cu  Cu318  1  0.81514265  0.91225465  0.31684092  1
  O  O319  1  0.57601242  0.67998005  0.34772566  1
  Cu  Cu320  1  0.57984047  0.87247889  0.28801395  1
  N  N321  1  0.89829703  0.83623227  0.39918266  1
  C  C322  1  0.80281190  0.70834328  0.34235907  1
  Cu  Cu323  1  0.97004813  0.92067096  0.42555230  1
  C  C324  1  0.73157573  0.75106914  0.37281920  1
  N  N325  1  0.83228505  0.94089838  0.47181396  1
  Cu  Cu326  1  0.69875552  0.88829796  0.48712754  1
  O  O327  1  0.71579238  0.61767584  0.29901022  1
  O  O328  1  0.57956468  0.94655193  0.43553320  1
  N  N329  1  0.69770139  0.83268347  0.43227590  1
  C  C330  1  0.93013232  0.70902997  0.32723122  1
  H  H331  1  0.53109935  0.75416064  0.39334706  1
  C  C332  1  0.84431461  0.99415622  0.49746286  1
  O  O333  1  0.96589664  0.92291542  0.28303499  1
  H  H334  1  0.96482368  0.67024517  0.30814025  1
  H  H335  1  0.98225817  0.90300283  0.25161855  1
  O  O336  1  0.79893856  0.71516835  0.58451559  1
  O  O337  1  0.90319165  0.92121081  0.67400878  1
  H  H338  1  0.68580822  0.93656758  0.57651684  1
  H  H339  1  0.93055068  0.84102529  0.53403912  1
  C  C340  1  0.66383222  0.98361841  0.56775111  1
  C  C341  1  0.90891286  0.85895309  0.57133318  1
  H  H342  1  0.77745480  0.85337567  0.63909583  1
  C  C343  1  0.79897284  0.83573450  0.59902665  1
  O  O344  1  0.56317449  0.82405265  0.55686056  1
  C  C345  1  0.76705551  0.76655076  0.58321144  1
  C  C346  1  0.66832377  0.81406743  0.57025275  1
  O  O347  1  0.59452275  0.86582771  0.69569416  1
  H  H348  1  0.88921296  0.56817810  0.72005042  1
  C  C349  1  0.52972812  0.90979121  0.70297230  1
  C  C350  1  0.58233591  0.96344170  0.73328319  1
  O  O351  1  0.94106828  0.65547298  0.73608323  1
  C  C352  1  0.98884523  0.92001205  0.64578972  1
  C  C353  1  0.92174914  0.60250984  0.74856112  1
  H  H354  1  0.77558112  0.92848807  0.74581504  1
  O  O355  1  0.92481977  0.80978504  0.96052120  1
  N  N356  1  0.62147368  0.57167869  0.95837708  1
  O  O357  1  0.63087310  0.85821514  0.83859469  1
  C  C358  1  0.93871018  0.59374712  0.80199984  1
  C  C359  1  0.70995210  0.96733098  0.75043631  1
  H  H360  1  0.76151371  0.74164657  0.93776093  1
  C  C361  1  0.69614343  0.61016592  0.98143471  1
  N  N362  1  0.64111283  0.51498130  0.85530661  1
  C  C363  1  0.93851009  0.77650040  0.99760016  1
  C  C364  1  0.72118126  0.88426837  0.86183599  1
  C  C365  1  0.76745064  0.97032481  0.92241052  1
  C  C366  1  0.77042813  0.70894263  0.97075565  1
  C  C367  1  0.51197093  0.90027285  0.85103757  1
  N  N368  1  0.69869016  0.66481620  0.95674221  1
  H  H369  1  0.81698033  0.85664044  0.85946400  1
  C  C370  1  0.91823698  0.53418789  0.82292880  1
  C  C371  1  0.69196835  0.93908770  0.88755390  1
  N  N372  1  0.95787191  0.51203046  0.94775200  1
  Cu  Cu373  1  0.58812444  0.58004100  0.81189219  1
  C  C374  1  0.97663369  0.56077027  0.93374074  1
  Cu  Cu375  1  0.52448786  0.55548637  0.90130368  1
  C  C376  1  0.55441240  0.95211909  0.88110247  1
  N  N377  1  0.98224168  0.96981122  0.78446271  1
  Cu  Cu378  1  0.78035425  0.50765081  0.90445289  1
  N  N379  1  0.83711813  0.99379525  0.95067004  1
  C  C380  1  0.97868440  0.64734819  0.82923265  1
  C  C381  1  0.97540262  0.69213729  0.78680813  1
  O  O382  1  0.99752800  0.74450381  0.78437142  1
  N  N383  1  0.53052512  0.53393668  0.75312415  1
