# generated using pymatgen
data_ZnH3(C3O2)3
_symmetry_space_group_name_H-M   'P 1'
_cell_length_a   18.12581608
_cell_length_b   6.75194958
_cell_length_c   16.40066816
_cell_angle_alpha   90.00000000
_cell_angle_beta   90.00000000
_cell_angle_gamma   90.00000000
_symmetry_Int_Tables_number   1
_chemical_formula_structural   ZnH3(C3O2)3
_chemical_formula_sum   'Zn8 H24 C72 O48'
_cell_volume   2007.18915219
_cell_formula_units_Z   8
loop_
 _symmetry_equiv_pos_site_id
 _symmetry_equiv_pos_as_xyz
  1  'x, y, z'
loop_
 _atom_site_type_symbol
 _atom_site_label
 _atom_site_symmetry_multiplicity
 _atom_site_fract_x
 _atom_site_fract_y
 _atom_site_fract_z
 _atom_site_occupancy
  O  O0  1  0.12934942  0.02305192  0.25657892  1
  C  C1  1  0.04960400  0.15369645  0.60872154  1
  H  H2  1  0.18127243  0.24153612  0.89748111  1
  O  O3  1  0.08853667  0.12381206  0.54832173  1
  C  C4  1  0.07783435  0.23378034  0.83221403  1
  C  C5  1  0.08746487  0.16553604  0.68866293  1
  H  H6  1  0.19737725  0.15424704  0.63294363  1
  C  C7  1  0.04397938  0.20070395  0.75609594  1
  C  C8  1  0.03206117  0.30013939  0.90233912  1
  C  C9  1  0.16533182  0.16572979  0.69089717  1
  C  C10  1  0.19976854  0.19877708  0.76596464  1
  C  C11  1  0.15576691  0.21855678  0.83390053  1
  O  O12  1  0.06321917  0.35027123  0.96943414  1
  Zn  Zn13  1  0.03006852  0.59482191  0.04483713  1
  C  C14  1  0.17120490  0.54929667  0.17214495  1
  O  O15  1  0.14601092  0.56254765  0.10067941  1
  O  O16  1  0.13718690  0.51297877  0.23114043  1
  O  O17  1  0.15771892  0.91090449  0.37915364  1
  Zn  Zn18  1  0.05795353  0.94956602  0.43421670  1
  C  C19  1  0.17560214  0.98841456  0.30967203  1
  H  H20  1  0.20333679  0.67509550  0.60042233  1
  C  C21  1  0.21132590  0.72703676  0.72985235  1
  O  O22  1  0.08671095  0.78298005  0.94936087  1
  C  C23  1  0.17658227  0.69884983  0.65574264  1
  C  C24  1  0.09469910  0.74367202  0.80178542  1
  H  H25  1  0.20578386  0.77637644  0.85811108  1
  C  C26  1  0.09843675  0.70014399  0.65694746  1
  C  C27  1  0.17242860  0.74795254  0.80135463  1
  C  C28  1  0.05788915  0.71278819  0.72853348  1
  C  C29  1  0.05725724  0.68109823  0.57857614  1
  C  C30  1  0.05226419  0.75647536  0.88243265  1
  O  O31  1  0.09022767  0.66570718  0.51265123  1
  C  C32  1  0.37501804  0.04644813  0.36350215  1
  H  H33  1  0.46836453  0.12722058  0.28369718  1
  O  O34  1  0.46693936  0.18064571  0.13717286  1
  C  C35  1  0.28876368  0.08707428  0.22450345  1
  O  O36  1  0.35919199  0.22443569  0.08181352  1
  C  C37  1  0.39656840  0.16932406  0.13644404  1
  C  C38  1  0.36345190  0.11385625  0.22178169  1
  C  C39  1  0.40823083  0.09751400  0.28867734  1
  H  H40  1  0.25239878  0.12017784  0.17022778  1
  C  C41  1  0.25807306  0.02815634  0.29944218  1
  O  O42  1  0.35463646  0.48265473  0.40250447  1
  O  O43  1  0.49060210  0.06036647  0.42875772  1
  C  C44  1  0.42389774  0.01820315  0.43493270  1
  O  O45  1  0.47182887  0.31076695  0.62088792  1
  O  O46  1  0.46721170  0.16709864  0.91491194  1
  C  C47  1  0.28372791  0.19798338  0.76082423  1
  O  O48  1  0.31234807  0.21817738  0.69303732  1
  O  O49  1  0.32176853  0.17719447  0.82273404  1
  H  H50  1  0.47892743  0.28024173  0.76960349  1
  Zn  Zn51  1  0.40582177  0.04927141  0.63026168  1
  C  C52  1  0.41719099  0.69231282  0.05259472  1
  H  H53  1  0.47046160  0.62309224  0.21228649  1
  C  C54  1  0.37489126  0.65414511  0.12957118  1
  C  C55  1  0.29763501  0.63951383  0.11750968  1
  O  O56  1  0.48625400  0.70470740  0.05699901  1
  C  C57  1  0.28622111  0.54835801  0.25922978  1
  C  C58  1  0.40973798  0.61057400  0.20443384  1
  C  C59  1  0.36333252  0.56568613  0.26696049  1
  H  H60  1  0.27684437  0.95419714  0.42709958  1
  H  H61  1  0.26891610  0.64843066  0.05966396  1
  C  C62  1  0.29937800  0.99308713  0.36808495  1
  C  C63  1  0.25713326  0.58483582  0.18365355  1
  O  O64  1  0.46759724  0.53570516  0.36478258  1
  H  H65  1  0.25450787  0.50137851  0.31362684  1
  C  C66  1  0.39981888  0.52393886  0.34882583  1
  O  O67  1  0.31844028  0.75032853  0.81283123  1
  C  C68  1  0.29425767  0.75769964  0.74088085  1
  O  O69  1  0.33396144  0.77288218  0.68174154  1
  O  O70  1  0.47261126  0.77033005  0.80022282  1
  Zn  Zn71  1  0.39703751  0.93703273  0.87153995  1
  O  O72  1  0.38471478  0.73473375  0.98695196  1
  O  O73  1  0.49539617  0.85883175  0.67307384  1
  O  O74  1  0.39045875  0.97429768  0.50126351  1
  O  O75  1  0.64184314  0.30600490  0.37579241  1
  C  C76  1  0.66790270  0.34459701  0.30540810  1
  Zn  Zn77  1  0.53960065  0.35189798  0.43354850  1
  O  O78  1  0.63022529  0.37240491  0.24427979  1
  H  H79  1  0.74061047  0.39582893  0.16708361  1
  C  C80  1  0.54100427  0.32588043  0.62040139  1
  C  C81  1  0.65442055  0.20036604  0.84566435  1
  C  C82  1  0.65590883  0.28451814  0.70052072  1
  C  C83  1  0.57991596  0.29810272  0.70094040  1
  O  O84  1  0.57735004  0.34683078  0.55648026  1
  H  H85  1  0.69008283  0.31352168  0.64770050  1
  C  C86  1  0.53876012  0.27059765  0.77111514  1
  C  C87  1  0.69005627  0.22852925  0.77236943  1
  C  C88  1  0.57742594  0.21872090  0.84149273  1
  C  C89  1  0.53805241  0.15384320  0.91628696  1
  H  H90  1  0.68558291  0.14103422  0.89951483  1
  O  O91  1  0.57116413  0.06956003  0.97385488  1
  O  O92  1  0.62850706  0.83899870  0.27726693  1
  C  C93  1  0.66752787  0.85910824  0.21812627  1
  O  O94  1  0.64516427  0.89292105  0.14472080  1
  Zn  Zn95  1  0.54118404  0.97140424  0.08996590  1
  C  C96  1  0.69756285  0.64324282  0.82509269  1
  C  C97  1  0.71485287  0.76483864  0.68880254  1
  C  C98  1  0.63976097  0.79227840  0.67711365  1
  H  H99  1  0.62101975  0.84440460  0.61553039  1
  C  C100  1  0.62237197  0.66877239  0.81771630  1
  C  C101  1  0.59629820  0.75593427  0.74654102  1
  C  C102  1  0.72684128  0.56986649  0.90908495  1
  H  H103  1  0.58152761  0.62775223  0.86607842  1
  C  C104  1  0.51586841  0.80241959  0.74229301  1
  O  O105  1  0.73018435  0.83308504  0.54189234  1
  C  C106  1  0.74473823  0.70917680  0.76322483  1
  O  O107  1  0.68267069  0.54971272  0.96285128  1
  C  C108  1  0.79432079  0.29049315  0.36253631  1
  C  C109  1  0.85549109  0.34734791  0.20718999  1
  O  O110  1  0.88999746  0.17221484  0.48222204  1
  C  C111  1  0.86947908  0.27095117  0.34935564  1
  H  H112  1  0.76535226  0.26315627  0.42254433  1
  C  C113  1  0.92150788  0.21531561  0.41687054  1
  C  C114  1  0.90167269  0.31125265  0.27447948  1
  H  H115  1  0.95934584  0.31650144  0.26062715  1
  C  C116  1  0.77854817  0.35816158  0.21732143  1
  O  O117  1  0.98491950  0.19279909  0.39829899  1
  C  C118  1  0.88759372  0.38196570  0.12540973  1
  O  O119  1  0.84309364  0.40163513  0.06739447  1
  O  O120  1  0.95598454  0.38979395  0.12032072  1
  C  C121  1  0.75002842  0.33330051  0.29422991  1
  O  O122  1  0.81381034  0.25827308  0.72237375  1
  C  C123  1  0.77572745  0.21464450  0.78087478  1
  Zn  Zn124  1  0.85063648  0.23265363  0.94607806  1
  O  O125  1  0.96304057  0.29486887  0.90001685  1
  O  O126  1  0.80370981  0.11285343  0.83861174  1
  O  O127  1  0.98056053  0.13671883  0.60755185  1
  H  H128  1  0.98522186  0.20427258  0.74504355  1
  H  H129  1  0.97053290  0.80638330  0.21290937  1
  C  C130  1  0.87132055  0.80256112  0.28669989  1
  C  C131  1  0.91767806  0.76215086  0.36227124  1
  O  O132  1  0.88286509  0.74448195  0.42689504  1
  C  C133  1  0.79096093  0.87642885  0.15162152  1
  C  C134  1  0.79318961  0.80638662  0.29179464  1
  O  O135  1  0.98587352  0.76133118  0.35469182  1
  C  C136  1  0.91078149  0.82548443  0.21546358  1
  C  C137  1  0.86769967  0.86176092  0.14644792  1
  C  C138  1  0.90140880  0.89265442  0.06508740  1
  O  O139  1  0.96930934  0.87815099  0.06092658  1
  H  H140  1  0.75825688  0.90063955  0.09526306  1
  O  O141  1  0.86293071  0.93789735  0.00263576  1
  H  H142  1  0.76610294  0.76891400  0.35410539  1
  C  C143  1  0.75005883  0.84617971  0.22334435  1
  H  H144  1  0.80487733  0.68321205  0.76910261  1
  O  O145  1  0.82373191  0.74468433  0.61669377  1
  Zn  Zn146  1  0.91140465  0.90480652  0.54656144  1
  C  C147  1  0.75656839  0.78479256  0.60612948  1
  O  O148  1  0.98795328  0.66025993  0.58634703  1
  O  O149  1  0.98495739  0.73425862  0.88057798  1
  H  H150  1  0.99592759  0.68554108  0.72691775  1
  O  O151  1  0.79345856  0.51688182  0.91426130  1
