# generated using pymatgen
data_ZnH3(C3O2)3
_symmetry_space_group_name_H-M   'P 1'
_cell_length_a   17.56521140
_cell_length_b   6.18371188
_cell_length_c   30.65355683
_cell_angle_alpha   90.00000000
_cell_angle_beta   90.00000000
_cell_angle_gamma   90.00000000
_symmetry_Int_Tables_number   1
_chemical_formula_structural   ZnH3(C3O2)3
_chemical_formula_sum   'Zn16 H48 C144 O96'
_cell_volume   3329.53436197
_cell_formula_units_Z   16
loop_
 _symmetry_equiv_pos_site_id
 _symmetry_equiv_pos_as_xyz
  1  'x, y, z'
loop_
 _atom_site_type_symbol
 _atom_site_label
 _atom_site_symmetry_multiplicity
 _atom_site_fract_x
 _atom_site_fract_y
 _atom_site_fract_z
 _atom_site_occupancy
  O  O0  1  0.17333767  0.25833416  0.20597463  1
  O  O1  1  0.02776470  0.28822256  0.15872168  1
  H  H2  1  0.18279488  0.24768592  0.12438515  1
  C  C3  1  0.24590188  0.23944657  0.12641395  1
  C  C4  1  0.36761441  0.22234309  0.08751681  1
  C  C5  1  0.36655956  0.22888644  0.16554122  1
  C  C6  1  0.28727518  0.23241142  0.16498178  1
  C  C7  1  0.28907212  0.23353915  0.08755502  1
  H  H8  1  0.39464905  0.24025923  0.19738865  1
  O  O9  1  0.29207888  0.26228321  0.01196726  1
  C  C10  1  0.40839506  0.23078655  0.12702574  1
  H  H11  1  0.40169965  0.22130149  0.05750507  1
  O  O12  1  0.17912849  0.25172039  0.04356129  1
  C  C13  1  0.24485906  0.25360667  0.20625765  1
  C  C14  1  0.25044009  0.26698233  0.04504981  1
  O  O15  1  0.02726849  0.25962200  0.08709505  1
  O  O16  1  0.28514709  0.23097853  0.23890974  1
  C  C17  1  0.49458837  0.22611622  0.12744351  1
  Zn  Zn18  1  0.08256127  0.49289361  0.21171851  1
  Zn  Zn19  1  0.07856715  0.49619232  0.04230265  1
  O  O20  1  0.27406212  0.22171975  0.34246979  1
  H  H21  1  0.44111219  0.18760561  0.37734685  1
  H  H22  1  0.15135795  0.21145810  0.45080706  1
  C  C23  1  0.12022944  0.23538014  0.33995254  1
  C  C24  1  0.04371872  0.24057905  0.41874166  1
  H  H25  1  0.15484252  0.23908908  0.30857478  1
  C  C26  1  0.16010900  0.22941528  0.37922223  1
  O  O27  1  0.42717684  0.19663000  0.29688721  1
  C  C28  1  0.03983940  0.24969771  0.34094498  1
  C  C29  1  0.12325944  0.23062209  0.41987681  1
  O  O30  1  0.28662633  0.22692252  0.41304306  1
  O  O31  1  0.43650724  0.26124105  0.46063260  1
  C  C32  1  0.24553245  0.21489562  0.38002684  1
  O  O33  1  0.03401764  0.23057586  0.49543116  1
  O  O34  1  0.03700426  0.23760734  0.26441611  1
  Zn  Zn35  1  0.33689431  0.48857526  0.45766309  1
  C  C36  1  0.49885000  0.20570033  0.29414437  1
  C  C37  1  0.00099832  0.25466153  0.38004706  1
  O  O38  1  0.19105589  0.23739134  0.70164070  1
  C  C39  1  0.39011052  0.23989315  0.66271246  1
  C  C40  1  0.30969829  0.24002157  0.66526551  1
  O  O41  1  0.18313948  0.30646376  0.55661197  1
  C  C42  1  0.42590761  0.24049889  0.62347970  1
  C  C43  1  0.30543794  0.26632256  0.58859107  1
  O  O44  1  0.03386443  0.26601151  0.59131662  1
  C  C45  1  0.26519025  0.27174011  0.62809661  1
  O  O46  1  0.03752869  0.27097961  0.66145049  1
  H  H47  1  0.40763221  0.26900237  0.55195046  1
  H  H48  1  0.42719188  0.22770705  0.69179664  1
  H  H49  1  0.20066830  0.28213660  0.63113635  1
  C  C50  1  0.25206025  0.29527084  0.55026761  1
  C  C51  1  0.26151713  0.22713867  0.70611910  1
  C  C52  1  0.38501610  0.25505666  0.58471741  1
  O  O53  1  0.28247222  0.29394648  0.51314653  1
  O  O54  1  0.29254421  0.21254814  0.74239295  1
  C  C55  1  0.00140228  0.26182742  0.62747946  1
  Zn  Zn56  1  0.08200311  0.03009227  0.71258304  1
  O  O57  1  0.42837917  0.20741140  0.79862803  1
  O  O58  1  0.27597528  0.22283427  0.91419557  1
  H  H59  1  0.15911689  0.25449821  0.80306352  1
  C  C60  1  0.12538625  0.26044449  0.83471650  1
  H  H61  1  0.14410527  0.23401268  0.94467574  1
  C  C62  1  0.03645396  0.28045387  0.90984627  1
  C  C63  1  0.24668798  0.21763100  0.87699092  1
  O  O64  1  0.03539056  0.26714946  0.98708495  1
  C  C65  1  0.11571853  0.25608820  0.91278350  1
  H  H66  1  0.44552941  0.20605911  0.87370259  1
  O  O67  1  0.43327774  0.21021498  0.95543143  1
  C  C68  1  0.16079355  0.24199713  0.87518284  1
  C  C69  1  0.04752500  0.27841123  0.83255116  1
  O  O70  1  0.28753197  0.19646451  0.84416948  1
  O  O71  1  0.05727757  0.28926110  0.75517279  1
  C  C72  1  0.01217923  0.30139852  0.78734846  1
  Zn  Zn73  1  0.33252042  0.46880403  0.95523131  1
  C  C74  1  0.40924620  0.76195114  0.20721110  1
  H  H75  1  0.25620821  0.71449296  0.05336232  1
  C  C76  1  0.16520596  0.71839614  0.12481777  1
  C  C77  1  0.28662670  0.72974553  0.16459313  1
  C  C78  1  0.36681152  0.73637144  0.16497490  1
  C  C79  1  0.25024906  0.72555783  0.12432679  1
  C  C80  1  0.36742835  0.71717052  0.08691175  1
  O  O81  1  0.13277791  0.71835465  0.08780251  1
  O  O82  1  0.48083270  0.77699782  0.20862998  1
  H  H83  1  0.46881354  0.74112174  0.12708277  1
  C  C84  1  0.40702203  0.73135861  0.12621375  1
  H  H85  1  0.25367592  0.71346976  0.19482094  1
  C  C86  1  0.28869073  0.72064237  0.08416678  1
  O  O87  1  0.13396289  0.73383000  0.16117017  1
  C  C88  1  0.40960385  0.67865434  0.04376809  1
  O  O89  1  0.47943487  0.67570029  0.04516669  1
  O  O90  1  0.37438093  0.68261402  0.00798812  1
  O  O91  1  0.36616263  0.75070440  0.23893716  1
  H  H92  1  0.22867375  0.72663048  0.37335185  1
  O  O93  1  0.39711982  0.74127917  0.33820373  1
  C  C94  1  0.16709824  0.72807957  0.37453534  1
  C  C95  1  0.12184516  0.72281659  0.33684241  1
  H  H96  1  0.01347925  0.72972386  0.30533015  1
  O  O97  1  0.23366857  0.73851375  0.28929559  1
  O  O98  1  0.23941801  0.71521382  0.45853587  1
  C  C99  1  0.17000150  0.70410113  0.45520511  1
  C  C100  1  0.04261291  0.73422871  0.33563214  1
  C  C101  1  0.04628095  0.73462424  0.41463498  1
  O  O102  1  0.12859025  0.70194999  0.48961456  1
  C  C103  1  0.12784977  0.72717439  0.41301449  1
  C  C104  1  0.16317493  0.71777121  0.29406907  1
  C  C105  1  0.42461478  0.73151121  0.37495684  1
  O  O106  1  0.38355080  0.72354060  0.40832829  1
  O  O107  1  0.11926255  0.71465400  0.26205801  1
  H  H108  1  0.01864972  0.73589886  0.44588645  1
  C  C109  1  0.00603296  0.73832782  0.37666923  1
  Zn  Zn110  1  0.32855729  0.98999413  0.29199539  1
  O  O111  1  0.13734163  0.78602901  0.65968878  1
  C  C112  1  0.37110691  0.73022768  0.66072536  1
  C  C113  1  0.16607947  0.75211214  0.62460662  1
  C  C114  1  0.41352706  0.72791554  0.62230985  1
  C  C115  1  0.42370223  0.72782169  0.54362522  1
  C  C116  1  0.41046803  0.71430382  0.70342059  1
  H  H117  1  0.25167997  0.73687977  0.68613385  1
  C  C118  1  0.29097851  0.74168022  0.65768287  1
  C  C119  1  0.25220979  0.74362200  0.61854840  1
  C  C120  1  0.29527475  0.73759049  0.57990714  1
  C  C121  1  0.37487476  0.73321656  0.58239250  1
  O  O122  1  0.12686565  0.75123958  0.58987048  1
  H  H123  1  0.26465317  0.74401919  0.54723339  1
  H  H124  1  0.47665103  0.72633949  0.62250525  1
  O  O125  1  0.48131302  0.70792228  0.70716861  1
  O  O126  1  0.39189450  0.72420390  0.50818555  1
  O  O127  1  0.49495308  0.71882880  0.54889960  1
  O  O128  1  0.36652571  0.74051110  0.73532347  1
  Zn  Zn129  1  0.07663699  0.51062967  0.54126457  1
  O  O130  1  0.23551344  0.76322803  0.79424605  1
  C  C131  1  0.16639315  0.77156895  0.79224657  1
  H  H132  1  0.01098451  0.80524785  0.80404308  1
  O  O133  1  0.23708245  0.68740007  0.95470988  1
  C  C134  1  0.12479277  0.76323795  0.83517942  1
  O  O135  1  0.38106719  0.75299294  0.83779286  1
  C  C136  1  0.16654134  0.73138732  0.87385523  1
  H  H137  1  0.22782852  0.70440549  0.87108240  1
  C  C138  1  0.04668312  0.76482751  0.91407040  1
  C  C139  1  0.12627643  0.74035034  0.91389335  1
  C  C140  1  0.16786045  0.71466089  0.95611589  1
  O  O141  1  0.38680530  0.74629563  0.90847985  1
  C  C142  1  0.41532028  0.72928076  0.87172594  1
  C  C143  1  0.04470211  0.77916218  0.83498628  1
  O  O144  1  0.12734518  0.80171689  0.75856301  1
  O  O145  1  0.13436474  0.71258659  0.99202015  1
  C  C146  1  0.00671942  0.76048906  0.87486643  1
  H  H147  1  0.01662633  0.77817502  0.94638973  1
  Zn  Zn148  1  0.33268108  0.98513871  0.78894145  1
  O  O149  1  0.68294559  0.21199874  0.20439536  1
  C  C150  1  0.75362893  0.20127580  0.20593526  1
  C  C151  1  0.87268465  0.23418177  0.16416539  1
  C  C152  1  0.74995174  0.31194857  0.04538925  1
  O  O153  1  0.52899363  0.21273016  0.16261726  1
  C  C154  1  0.90967735  0.25907738  0.12447167  1
  C  C155  1  0.79326908  0.22560644  0.16354346  1
  C  C156  1  0.87352563  0.26769434  0.08496773  1
  O  O157  1  0.52726918  0.24863173  0.09255199  1
  H  H158  1  0.90355920  0.25411205  0.05374060  1
  C  C159  1  0.75115684  0.25088920  0.12481963  1
  O  O160  1  0.79125996  0.20418348  0.24099511  1
  H  H161  1  0.90764949  0.20416199  0.19364168  1
  H  H162  1  0.68774651  0.25434568  0.12614929  1
  C  C163  1  0.79298372  0.27636717  0.08737644  1
  O  O164  1  0.67955321  0.27635905  0.04479197  1
  O  O165  1  0.78706027  0.34576569  0.01206729  1
  C  C166  1  0.99626894  0.27812815  0.12374030  1
  Zn  Zn167  1  0.58151154  0.48198408  0.04132245  1
  O  O168  1  0.78230534  0.21655476  0.40739209  1
  C  C169  1  0.54106795  0.21319719  0.33715745  1
  C  C170  1  0.62652702  0.21722167  0.41234764  1
  O  O171  1  0.78460280  0.22871306  0.33772284  1
  O  O172  1  0.92678643  0.26360015  0.30078239  1
  H  H173  1  0.66040203  0.21832949  0.44222525  1
  C  C174  1  0.74894108  0.20163513  0.37308086  1
  C  C175  1  0.54716411  0.23088996  0.41588828  1
  H  H176  1  0.64547416  0.22408341  0.29948216  1
  C  C177  1  0.66263319  0.21164929  0.37181695  1
  C  C178  1  0.62042781  0.22148996  0.33376376  1
  H  H179  1  0.93875877  0.24920166  0.37702903  1
  O  O180  1  0.54925460  0.26020754  0.49127787  1
  O  O181  1  0.92878748  0.21346133  0.45705452  1
  O  O182  1  0.53256763  0.23056621  0.25987716  1
  C  C183  1  0.99690760  0.25101699  0.29819032  1
  C  C184  1  0.50696935  0.25918868  0.45860336  1
  C  C185  1  0.50353101  0.20874850  0.37614306  1
  C  C186  1  0.99973342  0.23165718  0.46015536  1
  O  O187  1  0.68802936  0.20391991  0.71124632  1
  C  C188  1  0.75586330  0.24288856  0.70977767  1
  C  C189  1  0.87837510  0.24398203  0.58638904  1
  O  O190  1  0.68668463  0.24922280  0.54885785  1
  O  O191  1  0.54775558  0.18350208  0.65772858  1
  C  C192  1  0.87545772  0.25362579  0.66659676  1
  C  C193  1  0.75669464  0.23674198  0.62656027  1
  O  O194  1  0.79534716  0.27208462  0.74386044  1
  C  C195  1  0.80039768  0.22592411  0.58868106  1
  C  C196  1  0.75656544  0.22038647  0.54615698  1
  H  H197  1  0.90481466  0.24301979  0.69636514  1
  C  C198  1  0.79615892  0.25337610  0.66662605  1
  H  H199  1  0.90801505  0.24497763  0.55480796  1
  C  C200  1  0.91389791  0.25353054  0.62717945  1
  H  H201  1  0.69748118  0.24017025  0.62290939  1
  O  O202  1  0.54139557  0.21408668  0.58634928  1
  O  O203  1  0.79120140  0.17924025  0.51352123  1
  C  C204  1  0.51258888  0.21584761  0.62263293  1
  Zn  Zn205  1  0.58524880  0.47838423  0.54438103  1
  O  O206  1  0.77676790  0.30363153  0.90985934  1
  O  O207  1  0.94390453  0.32936673  0.78387275  1
  C  C208  1  0.54506549  0.23028293  0.83339523  1
  H  H209  1  0.93725590  0.30153372  0.86707249  1
  O  O210  1  0.78214563  0.31715027  0.83946829  1
  C  C211  1  0.62497396  0.25031558  0.83319138  1
  C  C212  1  0.54648797  0.22771504  0.91247586  1
  H  H213  1  0.65179721  0.26914214  0.80176689  1
  O  O214  1  0.92555418  0.28057999  0.95418654  1
  H  H215  1  0.65642825  0.23895070  0.94506084  1
  O  O216  1  0.53938039  0.23950020  0.99050851  1
  C  C217  1  0.62516666  0.22829298  0.91344490  1
  C  C218  1  0.74543394  0.28347338  0.87350963  1
  C  C219  1  0.65995951  0.25734136  0.87314436  1
  O  O220  1  0.53512400  0.21207925  0.75860390  1
  C  C221  1  0.99889291  0.28249289  0.86980236  1
  C  C222  1  0.50669532  0.22708136  0.87373908  1
  C  C223  1  0.50238526  0.22790902  0.95544373  1
  C  C224  1  0.50098592  0.20058010  0.79313791  1
  C  C225  1  0.99510368  0.27459231  0.95369026  1
  C  C226  1  0.79345074  0.74001779  0.16178116  1
  O  O227  1  0.98746057  0.73923581  0.19996752  1
  C  C228  1  0.91343446  0.71716819  0.04129596  1
  C  C229  1  0.91637022  0.74117481  0.20315912  1
  C  C230  1  0.66792059  0.77373969  0.12265361  1
  O  O231  1  0.62578330  0.75899327  0.09011673  1
  H  H232  1  0.76369986  0.75657158  0.19434072  1
  C  C233  1  0.87035018  0.73680618  0.08267537  1
  C  C234  1  0.87222622  0.72837168  0.16037867  1
  C  C235  1  0.91419255  0.72990323  0.12158686  1
  H  H236  1  0.75905817  0.75100022  0.05273056  1
  C  C237  1  0.79219791  0.74727165  0.08335096  1
  C  C238  1  0.75228920  0.75389655  0.12285997  1
  H  H239  1  0.97844037  0.73603909  0.11965369  1
  O  O240  1  0.63902398  0.75848991  0.16047973  1
  O  O241  1  0.87845948  0.75597676  0.23645719  1
  O  O242  1  0.88203955  0.74565010  0.00507946  1
  O  O243  1  0.98532721  0.72371918  0.04480424  1
  Zn  Zn244  1  0.58324747  0.98127412  0.20784756  1
  C  C245  1  0.66988891  0.69035661  0.45978041  1
  C  C246  1  0.67605706  0.77410420  0.29820142  1
  C  C247  1  0.63273371  0.76049659  0.34026901  1
  C  C248  1  0.67185983  0.72934730  0.37961833  1
  C  C249  1  0.54924145  0.71390883  0.41810221  1
  C  C250  1  0.62814422  0.69649578  0.41704789  1
  O  O251  1  0.74564439  0.77316931  0.29904210  1
  O  O252  1  0.74087550  0.70558668  0.45765175  1
  O  O253  1  0.88400177  0.77091000  0.34275707  1
  Zn  Zn254  1  0.84513381  0.99765472  0.28957287  1
  H  H255  1  0.73443458  0.73367939  0.37997189  1
  O  O256  1  0.88677071  0.71847508  0.41263739  1
  C  C257  1  0.91798885  0.74843164  0.37648675  1
  C  C258  1  0.55482844  0.74456700  0.33997760  1
  O  O259  1  0.63542754  0.79538944  0.26533550  1
  O  O260  1  0.63455167  0.69441125  0.49510262  1
  H  H261  1  0.51662945  0.70408422  0.44866307  1
  Zn  Zn262  1  0.83009115  0.96476513  0.45619424  1
  H  H263  1  0.52421156  0.75117106  0.30899560  1
  C  C264  1  0.51066166  0.73333751  0.37838090  1
  H  H265  1  0.76574123  0.77267666  0.69464325  1
  C  C266  1  0.91492673  0.78303206  0.70629711  1
  C  C267  1  0.67474310  0.74095226  0.62540568  1
  C  C268  1  0.87513864  0.75126170  0.58486463  1
  H  H269  1  0.76176352  0.72571792  0.55135968  1
  C  C270  1  0.91564367  0.76110023  0.62382803  1
  C  C271  1  0.87807883  0.77145764  0.66322179  1
  C  C272  1  0.79565387  0.75100393  0.58297258  1
  O  O273  1  0.87443723  0.74564139  0.50809265  1
  O  O274  1  0.64241032  0.71452124  0.59118817  1
  C  C275  1  0.76043996  0.75197679  0.62355911  1
  C  C276  1  0.79847772  0.76118644  0.66331530  1
  C  C277  1  0.91575098  0.75473679  0.54120196  1
  O  O278  1  0.64826920  0.74573934  0.66232818  1
  O  O279  1  0.98719652  0.78205079  0.70695783  1
  O  O280  1  0.87342945  0.78116231  0.73901458  1
  H  H281  1  0.97851898  0.75568447  0.62067417  1
  O  O282  1  0.98562658  0.76655859  0.53955496  1
  Zn  Zn283  1  0.57981618  0.95007931  0.70697488  1
  H  H284  1  0.72366117  0.76701682  0.87956165  1
  C  C285  1  0.66599217  0.75381423  0.79311723  1
  C  C286  1  0.92105214  0.75247689  0.87275487  1
  O  O287  1  0.61369254  0.71371080  0.99076884  1
  C  C288  1  0.62518438  0.74022404  0.83603614  1
  C  C289  1  0.61512605  0.74588071  0.91431208  1
  C  C290  1  0.66087879  0.75768160  0.87622724  1
  C  C291  1  0.65354296  0.74073576  0.95832004  1
  C  C292  1  0.54528084  0.72914802  0.83406848  1
  O  O293  1  0.73738854  0.77614972  0.79264164  1
  O  O294  1  0.72504739  0.75687489  0.95814140  1
  C  C295  1  0.53613153  0.74131683  0.91396810  1
  O  O296  1  0.88794461  0.74060920  0.83693910  1
  O  O297  1  0.88822180  0.77558292  0.90825212  1
  O  O298  1  0.63106746  0.74337010  0.75815140  1
  H  H299  1  0.51741056  0.72418148  0.80044897  1
  H  H300  1  0.50130733  0.73877765  0.94213348  1
  C  C301  1  0.50248952  0.73036121  0.87255670  1
  Zn  Zn302  1  0.82694205  0.53822743  0.95410365  1
  Zn  Zn303  1  0.82498898  0.54671392  0.78811128  1
