# generated using pymatgen
data_ZnH3(C3O2)3
_symmetry_space_group_name_H-M   'P 1'
_cell_length_a   25.55577075
_cell_length_b   16.38311803
_cell_length_c   12.06977929
_cell_angle_alpha   90.00000000
_cell_angle_beta   90.00000000
_cell_angle_gamma   90.00000000
_symmetry_Int_Tables_number   1
_chemical_formula_structural   ZnH3(C3O2)3
_chemical_formula_sum   'Zn16 H48 C144 O96'
_cell_volume   5053.41391994
_cell_formula_units_Z   16
loop_
 _symmetry_equiv_pos_site_id
 _symmetry_equiv_pos_as_xyz
  1  'x, y, z'
loop_
 _atom_site_type_symbol
 _atom_site_label
 _atom_site_symmetry_multiplicity
 _atom_site_fract_x
 _atom_site_fract_y
 _atom_site_fract_z
 _atom_site_occupancy
  O  O0  1  0.16351485  0.41350593  0.04321046  1
  H  H1  1  0.19568249  0.01569745  0.25913481  1
  O  O2  1  0.21563384  0.12004409  0.16756137  1
  C  C3  1  0.07917630  0.20645566  0.04886303  1
  O  O4  1  0.04429257  0.24886416  0.09527183  1
  O  O5  1  0.11057249  0.16993717  0.10546824  1
  C  C6  1  0.22078603  0.28994976  0.16117267  1
  H  H7  1  0.16007040  0.41016217  0.40505372  1
  C  C8  1  0.20646853  0.43089759  0.08140091  1
  O  O9  1  0.14511489  0.04679307  0.43334571  1
  H  H10  1  0.18493821  0.26620878  0.11883536  1
  O  O11  1  0.15576576  0.27145035  0.43442754  1
  C  C12  1  0.23655100  0.37097137  0.15255152  1
  C  C13  1  0.23979048  0.15175495  0.24681361  1
  C  C14  1  0.18481413  0.42755825  0.47612692  1
  Zn  Zn15  1  0.24365035  0.06394791  0.01991666  1
  Zn  Zn16  1  0.21521896  0.10198912  0.49334204  1
  C  C17  1  0.18406064  0.07474036  0.75941965  1
  H  H18  1  0.02410750  0.27991413  0.86959035  1
  O  O19  1  0.21618409  0.05101042  0.83237649  1
  O  O20  1  0.04066098  0.22561319  0.55144320  1
  C  C21  1  0.13181912  0.15012715  0.89870841  1
  C  C22  1  0.20517666  0.36505742  0.54733713  1
  O  O23  1  0.18785202  0.05358541  0.66059764  1
  H  H24  1  0.10709026  0.13865427  0.61608763  1
  C  C25  1  0.05783162  0.23956177  0.84813750  1
  C  C26  1  0.10565993  0.15770709  0.70432324  1
  C  C27  1  0.13833153  0.12935268  0.78700678  1
  C  C28  1  0.06657335  0.21071735  0.74180473  1
  H  H29  1  0.24585894  0.32724021  0.69864200  1
  C  C30  1  0.08963884  0.20067179  0.92459118  1
  C  C31  1  0.23924264  0.46233847  0.66390998  1
  C  C32  1  0.03014910  0.23931094  0.64528586  1
  C  C33  1  0.23358216  0.37969163  0.64436253  1
  O  O34  1  0.20728082  0.21941771  0.55569011  1
  C  C35  1  0.18794217  0.28186248  0.50779987  1
  H  H36  1  0.15489142  0.12291182  0.96980733  1
  H  H37  1  0.17579579  0.80064795  0.05882025  1
  Zn  Zn38  1  0.18856906  0.58559594  0.19754231  1
  C  C39  1  0.12378128  0.84569720  0.30827769  1
  C  C40  1  0.16859506  0.83230884  0.13779029  1
  O  O41  1  0.12986792  0.66557173  0.12348312  1
  C  C42  1  0.13563316  0.80235870  0.21092959  1
  H  H43  1  0.09684126  0.82225698  0.36714274  1
  O  O44  1  0.06613209  0.70034103  0.23219133  1
  C  C45  1  0.10756226  0.71751572  0.18654638  1
  C  C46  1  0.14739215  0.92317561  0.32297275  1
  C  C47  1  0.16865335  0.57600651  0.43917646  1
  O  O48  1  0.14951820  0.56158218  0.34453045  1
  O  O49  1  0.22138397  0.94048892  0.06945372  1
  C  C50  1  0.19219602  0.91373054  0.14372632  1
  C  C51  1  0.18073122  0.95516419  0.24406926  1
  O  O52  1  0.17394780  0.64349774  0.48043373  1
  O  O53  1  0.22174291  0.50670208  0.08025014  1
  C  C54  1  0.12855094  0.97470461  0.41923445  1
  O  O55  1  0.09935843  0.93868117  0.48011509  1
  C  C56  1  0.22083391  0.52608417  0.60017288  1
  H  H57  1  0.22380429  0.59268351  0.62405803  1
  C  C58  1  0.19147514  0.50712785  0.50562987  1
  C  C59  1  0.44632577  0.44137167  0.12224049  1
  C  C60  1  0.27842331  0.40003737  0.21971254  1
  C  C61  1  0.34785208  0.37836116  0.37169507  1
  H  H62  1  0.31298130  0.22755382  0.35566697  1
  C  C63  1  0.47729210  0.38419793  0.07007624  1
  C  C64  1  0.25084534  0.24246428  0.23119674  1
  O  O65  1  0.32729935  0.25155752  0.02335716  1
  H  H66  1  0.29000039  0.46282836  0.21788990  1
  O  O67  1  0.36469762  0.45366505  0.37519482  1
  O  O68  1  0.36210994  0.02446971  0.23891437  1
  C  C69  1  0.30500275  0.35061765  0.29289743  1
  O  O70  1  0.32588927  0.01817923  0.07644782  1
  O  O71  1  0.25429924  0.11692517  0.33274912  1
  C  C72  1  0.29107921  0.26780838  0.29981015  1
  C  C73  1  0.39572486  0.47202536  0.06313116  1
  Zn  Zn74  1  0.38991036  0.00691324  0.40720796  1
  O  O75  1  0.36776406  0.32970478  0.43362999  1
  O  O76  1  0.36753093  0.12913818  0.47640938  1
  C  C77  1  0.46094427  0.47726595  0.22124278  1
  H  H78  1  0.49915109  0.01038560  0.00459256  1
  O  O79  1  0.46726758  0.36516912  0.60901784  1
  H  H80  1  0.28935563  0.15081574  0.75138873  1
  C  C81  1  0.34223793  0.23526625  0.83535965  1
  O  O82  1  0.46931541  0.40308342  0.78811555  1
  C  C83  1  0.32549448  0.18784760  0.74864583  1
  C  C84  1  0.33683992  0.13541857  0.55765300  1
  C  C85  1  0.45362624  0.35710901  0.70818489  1
  C  C86  1  0.41163026  0.29526539  0.72322088  1
  O  O87  1  0.38913522  0.45687518  0.96189527  1
  H  H88  1  0.39824968  0.31883373  0.89758461  1
  H  H89  1  0.41602852  0.24264892  0.55551505  1
  C  C90  1  0.35426110  0.19038757  0.64642233  1
  C  C91  1  0.38538411  0.28852162  0.82367975  1
  O  O92  1  0.29558143  0.09574082  0.56303140  1
  C  C93  1  0.39540657  0.24201099  0.63663614  1
  O  O94  1  0.26969531  0.17495507  0.93363205  1
  C  C95  1  0.31125441  0.22010998  0.94071427  1
  Zn  Zn96  1  0.42550974  0.45150389  0.50758707  1
  O  O97  1  0.28382007  0.43038255  0.83206544  1
  H  H98  1  0.47000888  0.35633138  0.99075666  1
  C  C99  1  0.26322715  0.48452734  0.77607584  1
  C  C100  1  0.34855422  0.89239178  0.15534403  1
  C  C101  1  0.31381610  0.76746423  0.43859619  1
  O  O102  1  0.27169613  0.59156344  0.27651760  1
  H  H103  1  0.43751447  0.51878568  0.26548665  1
  H  H104  1  0.39319650  0.87851094  0.30873856  1
  C  C105  1  0.37219861  0.84976025  0.24050534  1
  O  O106  1  0.36461681  0.52003911  0.10975616  1
  C  C107  1  0.36347670  0.72101473  0.13328474  1
  C  C108  1  0.37889142  0.76522626  0.22579365  1
  H  H109  1  0.37094660  0.65209504  0.12448698  1
  C  C110  1  0.49142781  0.88772882  0.06088370  1
  C  C111  1  0.33226115  0.85143269  0.05857387  1
  C  C112  1  0.41371022  0.72262294  0.30621695  1
  C  C113  1  0.33951865  0.76714268  0.04985379  1
  H  H114  1  0.29870875  0.81610322  0.38034322  1
  O  O115  1  0.43630848  0.76658390  0.37547691  1
  O  O116  1  0.41915417  0.64977715  0.30288768  1
  C  C117  1  0.27644884  0.66469876  0.30951158  1
  C  C118  1  0.30640404  0.68672406  0.41572478  1
  O  O119  1  0.48384802  0.52934041  0.43379131  1
  C  C120  1  0.34376050  0.98227111  0.16000631  1
  H  H121  1  0.47115792  0.83708023  0.47251894  1
  H  H122  1  0.49314742  0.76954324  0.14722773  1
  O  O123  1  0.34027145  0.92492471  0.49263120  1
  C  C124  1  0.49022634  0.96670398  0.49837346  1
  Zn  Zn125  1  0.49353140  0.66651720  0.43554280  1
  O  O126  1  0.25176524  0.71749443  0.25955412  1
  H  H127  1  0.31568045  0.55877898  0.46576079  1
  C  C128  1  0.32291557  0.62329141  0.48585959  1
  O  O129  1  0.46927435  0.99503230  0.40909820  1
  C  C130  1  0.35195552  0.87140060  0.56232273  1
  C  C131  1  0.36144291  0.72639582  0.60948773  1
  O  O132  1  0.36892715  0.88773956  0.65600378  1
  O  O133  1  0.31453534  0.76890795  0.86976944  1
  C  C134  1  0.34270216  0.78487695  0.53611877  1
  O  O135  1  0.43698692  0.92296409  0.90318593  1
  O  O136  1  0.39705916  0.59037647  0.73789916  1
  C  C137  1  0.45602317  0.86472282  0.96425154  1
  H  H138  1  0.38394342  0.74208874  0.68195665  1
  Zn  Zn139  1  0.43961709  0.51643793  0.84672405  1
  Zn  Zn140  1  0.37565940  0.84407056  0.81566459  1
  C  C141  1  0.35026202  0.64631933  0.58126308  1
  O  O142  1  0.32953792  0.64636700  0.94029054  1
  C  C143  1  0.37259078  0.57916303  0.64831686  1
  C  C144  1  0.49113570  0.88215402  0.52690583  1
  O  O145  1  0.43886491  0.79820653  0.94545566  1
  O  O146  1  0.36530549  0.51107368  0.60597331  1
  C  C147  1  0.32433203  0.72296958  0.94974878  1
  O  O148  1  0.47905743  0.71919868  0.58611951  1
  Zn  Zn149  1  0.29633797  0.53152498  0.98745074  1
  H  H150  1  0.31437334  0.88802363  0.99095875  1
  O  O151  1  0.26072190  0.55574998  0.81798038  1
  C  C152  1  0.50729652  0.45099890  0.27410454  1
  H  H153  1  0.58016723  0.38077148  0.26167697  1
  C  C154  1  0.70987832  0.36708552  0.24636436  1
  O  O155  1  0.60626925  0.09228782  0.21525668  1
  O  O156  1  0.69718566  0.36090177  0.34495556  1
  O  O157  1  0.60488713  0.29180544  0.10521990  1
  Zn  Zn158  1  0.66010970  0.19836679  0.18277866  1
  O  O159  1  0.71063475  0.30276359  0.18439610  1
  C  C160  1  0.72777606  0.45277212  0.08045979  1
  C  C161  1  0.56217726  0.30960150  0.06136757  1
  O  O162  1  0.70430738  0.14215091  0.31183384  1
  C  C163  1  0.57140538  0.07385416  0.14738635  1
  C  C164  1  0.52455391  0.36677450  0.12261614  1
  O  O165  1  0.55953600  0.12452223  0.07328084  1
  C  C166  1  0.53998664  0.39477783  0.22602700  1
  C  C167  1  0.72542510  0.44625952  0.19763383  1
  O  O168  1  0.56661251  0.48596100  0.42352442  1
  H  H169  1  0.72194706  0.39777512  0.02707904  1
  C  C170  1  0.58011518  0.20526414  0.49025784  1
  C  C171  1  0.52309047  0.48543524  0.38878016  1
  O  O172  1  0.69836791  0.14402543  0.00955566  1
  Zn  Zn173  1  0.58510298  0.16112336  0.91725611  1
  H  H174  1  0.72263842  0.29849021  0.75712503  1
  O  O175  1  0.65834593  0.20426818  0.87133556  1
  C  C176  1  0.73438244  0.03295828  0.71880287  1
  C  C177  1  0.54804782  0.03988948  0.77544324  1
  C  C178  1  0.69807635  0.19353801  0.93042671  1
  C  C179  1  0.74223322  0.08848316  0.52100833  1
  O  O180  1  0.53990783  0.11470710  0.77206245  1
  H  H181  1  0.70119098  0.07409795  0.51030348  1
  O  O182  1  0.57117839  0.01466509  0.85947007  1
  O  O183  1  0.55037614  0.28260494  0.96848699  1
  C  C184  1  0.51023399  0.01322585  0.58693997  1
  Zn  Zn185  1  0.72576002  0.00553481  0.97120413  1
  O  O186  1  0.68974797  0.01143971  0.70285929  1
  C  C187  1  0.74949990  0.23422663  0.90313128  1
  O  O188  1  0.72564962  0.46290168  0.84516243  1
  H  H189  1  0.51028297  0.08058333  0.57893218  1
  O  O190  1  0.58638692  0.26350639  0.52698809  1
  O  O191  1  0.58837417  0.84146985  0.39782507  1
  H  H192  1  0.58272763  0.95878649  0.31065745  1
  C  C193  1  0.56065929  0.81083168  0.32875704  1
  C  C194  1  0.53798854  0.86000053  0.23101438  1
  O  O195  1  0.54766333  0.73673318  0.32756002  1
  C  C196  1  0.55851672  0.93926333  0.23831165  1
  O  O197  1  0.72817281  0.66004904  0.38490209  1
  C  C198  1  0.50564790  0.83164761  0.14493353  1
  O  O199  1  0.74475797  0.97458543  0.14877549  1
  O  O200  1  0.62950745  0.87642387  0.06089232  1
  H  H201  1  0.57390817  0.74427912  0.04334089  1
  H  H202  1  0.72598993  0.51565620  0.35479583  1
  C  C203  1  0.54575440  0.99181709  0.15254051  1
  O  O204  1  0.50921975  0.63179556  0.02778891  1
  C  C205  1  0.72930676  0.51641934  0.26570894  1
  C  C206  1  0.50975104  0.96735722  0.07064943  1
  C  C207  1  0.73581644  0.66609255  0.27733389  1
  C  C208  1  0.73859744  0.58808639  0.20717872  1
  C  C209  1  0.73640438  0.52654408  0.02955737  1
  C  C210  1  0.74570998  0.59609677  0.09372662  1
  O  O211  1  0.74886402  0.72651978  0.23114190  1
  C  C212  1  0.69103851  0.65471469  0.68591111  1
  O  O213  1  0.67542712  0.90517753  0.91419197  1
  H  H214  1  0.54984127  0.86718244  0.78111169  1
  C  C215  1  0.59495734  0.72654403  0.96423125  1
  C  C216  1  0.63590771  0.77510710  0.92428379  1
  C  C217  1  0.64726663  0.86043031  0.97292916  1
  C  C218  1  0.58063916  0.65787715  0.90368902  1
  C  C219  1  0.53503482  0.89771466  0.70430550  1
  C  C220  1  0.66303526  0.74955223  0.83526308  1
  C  C221  1  0.60853106  0.63015541  0.80870677  1
  C  C222  1  0.65132260  0.67509693  0.77672411  1
  O  O223  1  0.53511706  0.73042653  0.72385719  1
  H  H224  1  0.68964604  0.79481210  0.79773325  1
  C  C225  1  0.51191149  0.76001549  0.64745748  1
  O  O226  1  0.72177902  0.71147902  0.66258762  1
  H  H227  1  0.59904149  0.57446503  0.76823507  1
  O  O228  1  0.51423224  0.55375307  0.88617691  1
  O  O229  1  0.69415357  0.58802600  0.64181408  1
  C  C230  1  0.53377679  0.60963249  0.94586555  1
  C  C231  1  0.51317991  0.85073496  0.62117652  1
  C  C232  1  0.73625084  0.52529227  0.90185996  1
  C  C233  1  0.53288019  0.98142925  0.68313762  1
  C  C234  1  0.90339501  0.01735359  0.34344233  1
  C  C235  1  0.82372514  0.15227792  0.47560925  1
  C  C236  1  0.92135589  0.33259288  0.34558742  1
  C  C237  1  0.91310026  0.46591326  0.24735369  1
  C  C238  1  0.95718312  0.05826068  0.33574771  1
  H  H239  1  0.92928171  0.43739001  0.17229588  1
  C  C240  1  0.90370325  0.41866137  0.34508580  1
  O  O241  1  0.78407177  0.18498754  0.26667740  1
  H  H242  1  0.84352506  0.18670109  0.40816861  1
  O  O243  1  0.95743271  0.31566952  0.27487148  1
  Zn  Zn244  1  0.97261141  0.21119582  0.16689136  1
  H  H245  1  0.78287069  0.18189183  0.04286272  1
  O  O246  1  0.96922338  0.09629864  0.24861046  1
  C  C247  1  0.87746949  0.45654002  0.43025667  1
  O  O248  1  0.88990557  0.20153423  0.10506471  1
  O  O249  1  0.90690744  0.28329899  0.41671416  1
  H  H250  1  0.88695732  0.06281623  0.17682288  1
  C  C251  1  0.77335309  0.13363660  0.44595797  1
  O  O252  1  0.98802482  0.04964417  0.41057692  1
  C  C253  1  0.87359258  0.02278111  0.24784503  1
  O  O254  1  0.81160341  0.02657859  0.06705211  1
  C  C255  1  0.89267531  0.23801504  0.01126859  1
  C  C256  1  0.75256754  0.15716665  0.33070067  1
  O  O257  1  0.78193271  0.38851622  0.62173739  1
  C  C258  1  0.81579718  0.09295136  0.65777363  1
  C  C259  1  0.80521845  0.30712416  0.78029626  1
  C  C260  1  0.84961315  0.13283035  0.57902357  1
  C  C261  1  0.84981680  0.28868629  0.84537127  1
  C  C262  1  0.84308721  0.24651738  0.94403591  1
  C  C263  1  0.76566800  0.07501831  0.62437949  1
  Zn  Zn264  1  0.91648256  0.27536304  0.60110798  1
  O  O265  1  0.89495839  0.15188731  0.60432039  1
  H  H266  1  0.82889534  0.08087035  0.74373868  1
  O  O267  1  0.86532536  0.36473152  0.65325841  1
  H  H268  1  0.88777555  0.31540419  0.82529399  1
  C  C269  1  0.81629761  0.35488548  0.68013479  1
  O  O270  1  0.98942679  0.27999439  0.67314563  1
  C  C271  1  0.79211978  0.22081967  0.97222877  1
  H  H272  1  0.86829437  0.42155683  0.51264441  1
  C  C273  1  0.75530677  0.28489919  0.80929256  1
  O  O274  1  0.75410247  0.03538268  0.81561976  1
  O  O275  1  0.93680710  0.25849210  0.98145128  1
  O  O276  1  0.91839387  0.03917189  0.87705985  1
  C  C277  1  0.90838203  0.00310439  0.80772044  1
  H  H278  1  0.76384080  0.91608715  0.34474535  1
  C  C279  1  0.82389998  0.98649364  0.25609263  1
  C  C280  1  0.90846205  0.59004634  0.13464026  1
  C  C281  1  0.80521015  0.93895139  0.34218873  1
  H  H282  1  0.86269408  0.64920840  0.32088853  1
  C  C283  1  0.88752754  0.97943837  0.43847561  1
  O  O284  1  0.92253901  0.54942255  0.05305229  1
  C  C285  1  0.83837764  0.94041079  0.43319524  1
  C  C286  1  0.79213534  0.99610053  0.15188227  1
  O  O287  1  0.90038543  0.66318809  0.12577174  1
  C  C288  1  0.86657932  0.53991503  0.42499756  1
  C  C289  1  0.87304570  0.58552295  0.32962711  1
  C  C290  1  0.89947241  0.54635091  0.24412038  1
  H  H291  1  0.75423313  0.65508148  0.05566074  1
  O  O292  1  0.84546345  0.89131185  0.61448124  1
  O  O293  1  0.83580489  0.54635202  0.60998962  1
  O  O294  1  0.75880904  0.58082365  0.85351915  1
  C  C295  1  0.81875001  0.88932795  0.53255594  1
  O  O296  1  0.77554475  0.85196413  0.52326522  1
  O  O297  1  0.95032907  0.67591180  0.75568223  1
  Zn  Zn298  1  0.76529909  0.72750213  0.50672733  1
  O  O299  1  0.83843692  0.65973938  0.51677943  1
  C  C300  1  0.84471203  0.58370213  0.52251940  1
  H  H301  1  0.91483002  0.96752759  0.50585707  1
  C  C302  1  0.95034022  0.67060684  0.84309190  1
  Zn  Zn303  1  0.76308950  0.52142991  0.68194064  1
