# generated using pymatgen
data_ZnH3(C3O2)3
_symmetry_space_group_name_H-M   'P 1'
_cell_length_a   19.16686890
_cell_length_b   19.18861166
_cell_length_c   12.81846256
_cell_angle_alpha   90.00000000
_cell_angle_beta   90.00000000
_cell_angle_gamma   90.00000000
_symmetry_Int_Tables_number   1
_chemical_formula_structural   ZnH3(C3O2)3
_chemical_formula_sum   'Zn16 H48 C144 O96'
_cell_volume   4714.44599595
_cell_formula_units_Z   16
loop_
 _symmetry_equiv_pos_site_id
 _symmetry_equiv_pos_as_xyz
  1  'x, y, z'
loop_
 _atom_site_type_symbol
 _atom_site_label
 _atom_site_symmetry_multiplicity
 _atom_site_fract_x
 _atom_site_fract_y
 _atom_site_fract_z
 _atom_site_occupancy
  C  C0  1  0.32830609  0.31466734  0.15430090  1
  C  C1  1  0.23222638  0.20674779  0.19934695  1
  C  C2  1  0.32399030  0.11946685  0.20799786  1
  C  C3  1  0.35208105  0.24570103  0.16622809  1
  O  O4  1  0.10888266  0.35181327  0.20644683  1
  H  H5  1  0.40691082  0.23720477  0.16727201  1
  O  O6  1  0.38160036  0.10015575  0.16471482  1
  C  C7  1  0.30351719  0.19511920  0.18923908  1
  H  H8  1  0.23848489  0.38291947  0.16430554  1
  C  C9  1  0.25752025  0.32771852  0.16673854  1
  C  C10  1  0.13006639  0.28965326  0.21076952  1
  C  C11  1  0.38186181  0.37040494  0.13581232  1
  C  C12  1  0.20900233  0.27548328  0.19085850  1
  O  O13  1  0.36364014  0.43215949  0.14015734  1
  O  O14  1  0.44272310  0.35414030  0.10345055  1
  H  H15  1  0.11435114  0.49209328  0.21358720  1
  O  O16  1  0.08841203  0.24390044  0.22410472  1
  Zn  Zn17  1  0.01691466  0.37174565  0.11933413  1
  H  H18  1  0.19631773  0.16319882  0.21993793  1
  O  O19  1  0.28390344  0.07487705  0.23853233  1
  O  O20  1  0.40719386  0.43010768  0.38285385  1
  C  C21  1  0.34567486  0.17936239  0.41923001  1
  C  C22  1  0.44363519  0.37517961  0.36395401  1
  C  C23  1  0.44846914  0.24781992  0.36871873  1
  C  C24  1  0.30769659  0.24150608  0.42598688  1
  C  C25  1  0.41592226  0.18653672  0.39472338  1
  C  C26  1  0.45860499  0.11931561  0.39297574  1
  H  H27  1  0.32498960  0.12642968  0.43348370  1
  C  C28  1  0.40586948  0.30804251  0.37925392  1
  O  O29  1  0.05415111  0.11352752  0.35468893  1
  C  C30  1  0.33629950  0.30648381  0.40862226  1
  H  H31  1  0.30658789  0.35591388  0.41454381  1
  O  O32  1  0.43243459  0.06032113  0.39862068  1
  Zn  Zn33  1  0.33772738  0.49253761  0.28387216  1
  O  O34  1  0.22899306  0.48004170  0.29994277  1
  C  C35  1  0.23526667  0.23422314  0.47116687  1
  O  O36  1  0.23340002  0.49527979  0.46651003  1
  Zn  Zn37  1  0.12968302  0.11569041  0.46752956  1
  C  C38  1  0.19913461  0.49520063  0.38608718  1
  O  O39  1  0.16656995  0.01205839  0.49585520  1
  O  O40  1  0.20055535  0.28735572  0.47219297  1
  O  O41  1  0.43110561  0.02394236  0.64252284  1
  C  C42  1  0.04445801  0.40175878  0.68721596  1
  O  O43  1  0.16270191  0.42614418  0.69947075  1
  O  O44  1  0.06602873  0.19154918  0.57403682  1
  C  C45  1  0.47246427  0.16188633  0.64020005  1
  C  C46  1  0.00920365  0.21867984  0.58718126  1
  C  C47  1  0.37523069  0.26487592  0.69523985  1
  C  C48  1  0.44313423  0.28211222  0.66706415  1
  C  C49  1  0.05697104  0.33590509  0.64479984  1
  H  H50  1  0.11073077  0.31950500  0.62550120  1
  C  C51  1  0.35219916  0.19627331  0.68978527  1
  C  C52  1  0.40214345  0.14527713  0.66909671  1
  C  C53  1  0.38670201  0.06952759  0.66586366  1
  H  H54  1  0.46001542  0.33696864  0.65884777  1
  C  C55  1  0.49142463  0.23006836  0.64242759  1
  C  C56  1  0.10172068  0.44817609  0.72404499  1
  O  O57  1  0.32606773  0.05357750  0.69590135  1
  H  H58  1  0.30026152  0.18166372  0.71565892  1
  C  C59  1  0.00018230  0.29234148  0.62450011  1
  C  C60  1  0.32702929  0.32308823  0.73089353  1
  O  O61  1  0.34527245  0.38513397  0.72071913  1
  O  O62  1  0.21510281  0.17304991  0.50046941  1
  H  H63  1  0.02022876  0.27107374  0.90195251  1
  O  O64  1  0.30964262  0.14062887  0.94402590  1
  H  H65  1  0.11576545  0.06608414  0.89788829  1
  C  C66  1  0.13392242  0.27069038  0.94132979  1
  C  C67  1  0.25010311  0.11370982  0.92803717  1
  Zn  Zn68  1  0.23780081  0.42436663  0.81496593  1
  C  C69  1  0.19199614  0.23004736  0.93857748  1
  C  C70  1  0.13892958  0.34751813  0.96380243  1
  C  C71  1  0.06771742  0.24004334  0.91761745  1
  O  O72  1  0.24490509  0.04887364  0.90987085  1
  C  C73  1  0.18722192  0.15614511  0.92975294  1
  C  C74  1  0.06738024  0.16877619  0.90185575  1
  C  C75  1  0.12372292  0.12387074  0.91513491  1
  H  H76  1  0.24108797  0.25662222  0.95655703  1
  O  O77  1  0.19573973  0.37841827  0.95833212  1
  O  O78  1  0.46107306  0.21487855  0.96774482  1
  O  O79  1  0.08326445  0.37684263  0.99067038  1
  O  O80  1  0.26962960  0.31037942  0.77622715  1
  Zn  Zn81  1  0.40591580  0.10158151  0.99179897  1
  H  H82  1  0.47701075  0.95895107  0.18459759  1
  C  C83  1  0.44050762  0.87840107  0.07533548  1
  O  O84  1  0.20627532  0.69137724  0.09127662  1
  H  H85  1  0.15147959  0.79771292  0.06907120  1
  C  C86  1  0.11778880  0.74506694  0.20567797  1
  C  C87  1  0.42724555  0.80805780  0.04898722  1
  C  C88  1  0.11972950  0.80063666  0.13979791  1
  C  C89  1  0.07397689  0.85588063  0.16461954  1
  C  C90  1  0.47116965  0.90324620  0.16658158  1
  O  O91  1  0.02395135  0.96380856  0.11597942  1
  C  C92  1  0.07449749  0.92054344  0.09765005  1
  C  C93  1  0.45563625  0.68274108  0.09690233  1
  C  C94  1  0.46058209  0.76512789  0.11746216  1
  O  O95  1  0.43416889  0.99478695  0.01641879  1
  C  C96  1  0.16778775  0.68523959  0.16583465  1
  O  O97  1  0.42322779  0.66257463  0.02068443  1
  O  O98  1  0.16234267  0.62854165  0.21256428  1
  O  O99  1  0.49164129  0.64297732  0.14554038  1
  C  C100  1  0.49922582  0.85158752  0.22832699  1
  O  O101  1  0.11522989  0.92623453  0.02723506  1
  C  C102  1  0.07700871  0.74400080  0.29469985  1
  O  O103  1  0.38388382  0.89790135  0.43608659  1
  C  C104  1  0.43878222  0.58781120  0.38981408  1
  H  H105  1  0.07412633  0.69879804  0.34727050  1
  O  O106  1  0.00001764  0.74409243  0.47379712  1
  O  O107  1  0.39759750  0.78750437  0.46660655  1
  C  C108  1  0.12066065  0.51155831  0.38449884  1
  C  C109  1  0.09337365  0.52786621  0.48056720  1
  O  O110  1  0.40459203  0.57027030  0.30684303  1
  C  C111  1  0.02326736  0.54515245  0.48346299  1
  C  C112  1  0.36065980  0.83839084  0.46051149  1
  C  C113  1  0.03334307  0.80067323  0.31772754  1
  C  C114  1  0.01654099  0.52355206  0.29381728  1
  H  H115  1  0.26511834  0.94764426  0.46852604  1
  O  O116  1  0.41067277  0.62117327  0.45881288  1
  Zn  Zn117  1  0.46204335  0.96965574  0.49813746  1
  C  C118  1  0.08670306  0.50831223  0.28703717  1
  C  C119  1  0.28515097  0.83429138  0.49731136  1
  C  C120  1  0.24876214  0.89554220  0.49822556  1
  C  C121  1  0.03138837  0.85841052  0.25301956  1
  C  C122  1  0.19283293  0.77208589  0.57139768  1
  H  H123  1  0.10393544  0.83445794  0.62087748  1
  O  O124  1  0.20207328  0.65385708  0.60808495  1
  O  O125  1  0.08402979  0.95838118  0.57814145  1
  O  O126  1  0.00218063  0.57642527  0.66442436  1
  H  H127  1  0.29212168  0.72217145  0.53271640  1
  C  C128  1  0.14419567  0.96173277  0.54430119  1
  C  C129  1  0.15050240  0.83118667  0.57540376  1
  C  C130  1  0.16668773  0.70498574  0.62142575  1
  O  O131  1  0.11192363  0.70356872  0.67828460  1
  C  C132  1  0.18040391  0.89213487  0.54158863  1
  C  C133  1  0.25837770  0.76902843  0.53073255  1
  H  H134  1  0.12818206  0.53202364  0.55122168  1
  O  O135  1  0.49022112  0.77857596  0.73723799  1
  H  H136  1  0.37500957  0.82544996  0.74645268  1
  H  H137  1  0.38587342  0.60364843  0.82061037  1
  O  O138  1  0.03928865  0.74084825  0.93055298  1
  C  C139  1  0.25037986  0.71739661  0.84684355  1
  C  C140  1  0.24684735  0.58872171  0.86434859  1
  O  O141  1  0.27389684  0.52966909  0.87178331  1
  O  O142  1  0.00442973  0.63829016  0.88757778  1
  O  O143  1  0.38487114  0.92014583  0.91246823  1
  O  O144  1  0.17939837  0.84091760  0.84382169  1
  Zn  Zn145  1  0.31745850  0.98348848  0.83616587  1
  O  O146  1  0.18346433  0.59747934  0.87449691  1
  C  C147  1  0.28222411  0.77662712  0.80596241  1
  H  H148  1  0.19717426  0.72129981  0.88151480  1
  H  H149  1  0.39079973  0.79172219  0.98294530  1
  C  C150  1  0.23742189  0.84300359  0.80846891  1
  C  C151  1  0.28645028  0.65434213  0.83929759  1
  C  C152  1  0.38759057  0.71444991  0.78669041  1
  C  C153  1  0.41336527  0.93502614  0.99960821  1
  C  C154  1  0.35766160  0.65261975  0.81909242  1
  O  O155  1  0.26366704  0.89701717  0.76502648  1
  C  C156  1  0.35225219  0.77798735  0.77688509  1
  C  C157  1  0.46571776  0.72209153  0.76292391  1
  Zn  Zn158  1  0.08770096  0.61494389  0.77392884  1
  O  O159  1  0.09346511  0.50047288  0.78022864  1
  C  C160  1  0.82917965  0.28112340  0.07446027  1
  C  C161  1  0.85581091  0.21461090  0.08100414  1
  H  H162  1  0.73661374  0.34648878  0.06874413  1
  O  O163  1  0.59829295  0.20941918  0.14836072  1
  O  O164  1  0.79850840  0.04001350  0.14135941  1
  C  C165  1  0.73845078  0.16630007  0.11997233  1
  H  H166  1  0.91036559  0.20423307  0.06526841  1
  H  H167  1  0.70168089  0.12455775  0.14463869  1
  C  C168  1  0.71672023  0.23511923  0.10483650  1
  C  C169  1  0.87046123  0.34568686  0.04446900  1
  O  O170  1  0.62563367  0.31874182  0.13427714  1
  C  C171  1  0.75654199  0.29391518  0.08354442  1
  C  C172  1  0.83892045  0.08638835  0.12022972  1
  C  C173  1  0.63946772  0.25495900  0.12638284  1
  O  O174  1  0.93242368  0.33432006  0.02538391  1
  O  O175  1  0.62110739  0.45667720  0.16777129  1
  C  C176  1  0.81042028  0.15904902  0.10700434  1
  O  O177  1  0.84317359  0.40737766  0.04258336  1
  O  O178  1  0.90326951  0.07543011  0.10696750  1
  Zn  Zn179  1  0.82258744  0.45652797  0.18486173  1
  Zn  Zn180  1  0.53717673  0.37561600  0.17513776  1
  C  C181  1  0.65387831  0.47229498  0.24576918  1
  O  O182  1  0.99435052  0.48794253  0.12224151  1
  Zn  Zn183  1  0.95002897  0.00252683  0.01440953  1
  C  C184  1  0.82545125  0.23453180  0.34719363  1
  C  C185  1  0.94799058  0.21328446  0.32735811  1
  C  C186  1  0.81334835  0.16540496  0.37313571  1
  O  O187  1  0.98402147  0.02660171  0.38203327  1
  C  C188  1  0.86811621  0.11798442  0.37816415  1
  H  H189  1  0.78206462  0.26882144  0.34385535  1
  O  O190  1  0.84393842  0.37583799  0.29214664  1
  C  C191  1  0.73912533  0.14143183  0.40125632  1
  H  H192  1  0.85655673  0.06583760  0.39761710  1
  C  C193  1  0.93636115  0.14370009  0.35354507  1
  C  C194  1  0.89208820  0.25962052  0.32271906  1
  O  O195  1  0.72330982  0.07929545  0.41511588  1
  O  O196  1  0.69118600  0.18576222  0.40072133  1
  C  C197  1  0.89572633  0.33628033  0.29456309  1
  O  O198  1  0.52162856  0.12597331  0.36985346  1
  H  H199  1  0.50519826  0.25196880  0.35016985  1
  O  O200  1  0.71716179  0.46931758  0.25892416  1
  C  C201  1  0.99259904  0.09127187  0.36100012  1
  O  O202  1  0.95341129  0.35406275  0.26241957  1
  Zn  Zn203  1  0.60298299  0.12870576  0.48381679  1
  H  H204  1  0.99960246  0.22694230  0.30347781  1
  O  O205  1  0.50589699  0.37927509  0.33445343  1
  H  H206  1  0.69814782  0.49044584  0.43856272  1
  C  C207  1  0.93170713  0.31361030  0.63660172  1
  C  C208  1  0.56307630  0.25562929  0.60621124  1
  O  O209  1  0.86378789  0.06275529  0.60778581  1
  H  H210  1  0.73570396  0.04873361  0.60778776  1
  O  O211  1  0.57267587  0.31749452  0.59863105  1
  O  O212  1  0.61070151  0.20844113  0.59603773  1
  H  H213  1  0.88838468  0.27988555  0.62052728  1
  O  O214  1  0.59375996  0.04886396  0.58783448  1
  C  C215  1  0.97520565  0.42184743  0.71322516  1
  C  C216  1  0.92049763  0.37992937  0.68248040  1
  H  H217  1  0.96621338  0.47215280  0.74734827  1
  O  O218  1  0.95275327  0.18317097  0.57972294  1
  Zn  Zn219  1  0.88113033  0.14990469  0.69926868  1
  C  C220  1  0.84679953  0.40864018  0.69308677  1
  O  O221  1  0.79752730  0.37648468  0.66274824  1
  H  H222  1  0.50654701  0.11743293  0.61676249  1
  O  O223  1  0.84087724  0.46380439  0.74793954  1
  O  O224  1  0.95054325  0.17320465  0.83983323  1
  C  C225  1  0.57443979  0.30542390  0.89812552  1
  C  C226  1  0.63727859  0.41996270  0.87935026  1
  H  H227  1  0.52422540  0.32893894  0.92452658  1
  C  C228  1  0.69565671  0.30278188  0.84054491  1
  C  C229  1  0.57372158  0.23271961  0.88614044  1
  C  C230  1  0.69168550  0.23150001  0.82996242  1
  H  H231  1  0.62087321  0.13850128  0.82983252  1
  C  C232  1  0.63628884  0.34020174  0.87292876  1
  O  O233  1  0.58254562  0.44815197  0.88760301  1
  C  C234  1  0.63004548  0.19408580  0.84455195  1
  O  O235  1  0.50771019  0.12547300  0.89810986  1
  H  H236  1  0.74593895  0.32787596  0.82631985  1
  O  O237  1  0.69732550  0.44941333  0.87927761  1
  O  O238  1  0.75934937  0.13046206  0.77734452  1
  C  C239  1  0.75557893  0.19453089  0.78942396  1
  O  O240  1  0.98971072  0.07203143  0.88706353  1
  C  C241  1  0.99758959  0.13583919  0.87543145  1
  C  C242  1  0.51233144  0.18986256  0.91738175  1
  O  O243  1  0.80714511  0.23153930  0.75817448  1
  C  C244  1  0.97143463  0.51795176  0.20044421  1
  O  O245  1  0.90542574  0.52828823  0.21142803  1
  C  C246  1  0.50023342  0.78055040  0.20530689  1
  H  H247  1  0.52074691  0.52716267  0.23895125  1
  H  H248  1  0.93239148  0.55843586  0.39382204  1
  C  C249  1  0.61120853  0.50728243  0.33057759  1
  C  C250  1  0.53441109  0.87428643  0.33379007  1
  O  O251  1  0.52329365  0.93526127  0.36036691  1
  C  C252  1  0.64401605  0.50998303  0.42706670  1
  C  C253  1  0.51280562  0.56221772  0.40493011  1
  O  O254  1  0.57620046  0.83355412  0.36949625  1
  C  C255  1  0.54412449  0.53064958  0.31695576  1
  C  C256  1  0.98693141  0.54499584  0.39112562  1
  O  O257  1  0.95944051  0.84981492  0.44115481  1
  Zn  Zn258  1  0.98741818  0.95324909  0.49960319  1
  C  C259  1  0.99708082  0.79713058  0.42466222  1
  H  H260  1  0.99397986  0.90231576  0.26501739  1
  H  H261  1  0.52646584  0.74304821  0.25804587  1
  O  O262  1  0.70414482  0.52351722  0.62963962  1
  C  C263  1  0.86964232  0.99977006  0.62497056  1
  C  C264  1  0.68527537  0.87915012  0.60793295  1
  C  C265  1  0.74534402  0.76706085  0.63969744  1
  C  C266  1  0.80939102  0.88612002  0.63255272  1
  O  O267  1  0.68663861  0.74018508  0.63090030  1
  C  C268  1  0.61238571  0.54413032  0.51110476  1
  C  C269  1  0.74798022  0.84594463  0.62937515  1
  C  C270  1  0.80475191  0.95641536  0.62054575  1
  O  O271  1  0.56163752  0.93990650  0.58111884  1
  H  H272  1  0.86165477  0.86322174  0.64483409  1
  C  C273  1  0.68088681  0.95262379  0.60131617  1
  O  O274  1  0.92620755  0.96725821  0.63968383  1
  O  O275  1  0.79835338  0.73276287  0.65695388  1
  O  O276  1  0.61632718  0.58801734  0.68737362  1
  H  H277  1  0.63889364  0.84460017  0.59542622  1
  C  C278  1  0.64713150  0.55492880  0.61645816  1
  C  C279  1  0.97613219  0.57158590  0.57466690  1
  H  H280  1  0.51144133  0.59785896  0.56551037  1
  O  O281  1  0.91682370  0.58713293  0.55782143  1
  C  C282  1  0.60780027  0.98305027  0.58797988  1
  C  C283  1  0.73911421  0.99274971  0.61088078  1
  Zn  Zn284  1  0.61289974  0.69739014  0.73544123  1
  C  C285  1  0.54547314  0.57141414  0.50043637  1
  H  H286  1  0.87251614  0.63025649  0.93643854  1
  C  C287  1  0.78775699  0.78690338  0.90370234  1
  C  C288  1  0.84608705  0.82914189  0.90281848  1
  O  O289  1  0.67369395  0.70090108  0.87525116  1
  C  C290  1  0.91783474  0.73090007  0.91648999  1
  C  C291  1  0.79721016  0.71406874  0.90504266  1
  H  H292  1  0.73563090  0.81131863  0.89161687  1
  C  C293  1  0.91169025  0.80250955  0.91705850  1
  O  O294  1  0.73399441  0.60667693  0.89887872  1
  C  C295  1  0.86263344  0.68495929  0.92095093  1
  C  C296  1  0.73222092  0.67113568  0.88826433  1
  H  H297  1  0.95848159  0.83762550  0.92133580  1
  O  O298  1  0.78879214  0.94161615  0.88118867  1
  C  C299  1  0.84288544  0.91130753  0.89037198  1
  O  O300  1  0.90291419  0.93998225  0.89212791  1
  O  O301  1  0.50498654  0.66955023  0.77629580  1
  C  C302  1  0.99416291  0.69995036  0.91281004  1
  Zn  Zn303  1  0.74861932  0.52599688  0.78721279  1
