# generated using pymatgen
data_ZnH3(C3O2)3
_symmetry_space_group_name_H-M   'P 1'
_cell_length_a   20.56328504
_cell_length_b   6.46048979
_cell_length_c   18.69199845
_cell_angle_alpha   90.00000000
_cell_angle_beta   90.00000000
_cell_angle_gamma   90.00000000
_symmetry_Int_Tables_number   1
_chemical_formula_structural   ZnH3(C3O2)3
_chemical_formula_sum   'Zn8 H24 C72 O48'
_cell_volume   2483.21130102
_cell_formula_units_Z   8
loop_
 _symmetry_equiv_pos_site_id
 _symmetry_equiv_pos_as_xyz
  1  'x, y, z'
loop_
 _atom_site_type_symbol
 _atom_site_label
 _atom_site_symmetry_multiplicity
 _atom_site_fract_x
 _atom_site_fract_y
 _atom_site_fract_z
 _atom_site_occupancy
  H  H0  1  0.18543870  0.21220092  0.18748026  1
  C  C1  1  0.07847699  0.17029468  0.26845842  1
  C  C2  1  0.08100314  0.31887787  0.04718798  1
  C  C3  1  0.07929261  0.22292932  0.18959167  1
  C  C4  1  0.20476958  0.31797384  0.05156324  1
  O  O5  1  0.05619932  0.25835923  0.47168767  1
  C  C6  1  0.13986871  0.22943435  0.15730484  1
  C  C7  1  0.13854809  0.29222112  0.08578738  1
  C  C8  1  0.02207265  0.29844233  0.08154704  1
  O  O9  1  0.12897652  0.17227479  0.30198919  1
  C  C10  1  0.02156485  0.25313995  0.15571638  1
  O  O11  1  0.02708041  0.14300805  0.30358823  1
  O  O12  1  0.12148598  0.33214793  0.56316664  1
  H  H13  1  0.05367277  0.43550053  0.68369144  1
  C  C14  1  0.06636703  0.30113821  0.53572969  1
  O  O15  1  0.20349266  0.37875500  0.98990077  1
  C  C16  1  0.01001639  0.38727916  0.65421001  1
  C  C17  1  0.00776858  0.32913085  0.58248090  1
  H  H18  1  0.08218987  0.37630920  0.99012793  1
  O  O19  1  0.14725919  0.80958556  0.42781588  1
  H  H20  1  0.21692566  0.88725539  0.32154719  1
  C  C21  1  0.20134302  0.82695696  0.46321406  1
  H  H22  1  0.19976467  0.90584593  0.01774560  1
  O  O23  1  0.07501364  0.86290286  0.02705815  1
  Zn  Zn24  1  0.06574351  0.98772566  0.40073669  1
  C  C25  1  0.14133270  0.85380669  0.92304972  1
  C  C26  1  0.07512568  0.84995494  0.96326671  1
  C  C27  1  0.20060798  0.81951324  0.80929347  1
  C  C28  1  0.14185200  0.82332205  0.84847976  1
  C  C29  1  0.19737950  0.75567680  0.73168429  1
  C  C30  1  0.19820240  0.87991767  0.95806038  1
  O  O31  1  0.02764279  0.85563051  0.92098400  1
  H  H32  1  0.09472432  0.82788958  0.81978553  1
  O  O33  1  0.20240081  0.82982742  0.52984510  1
  O  O34  1  0.14571798  0.69269198  0.70097325  1
  O  O35  1  0.24849295  0.74403872  0.69723891  1
  Zn  Zn36  1  0.18817216  0.57692737  0.59476120  1
  O  O37  1  0.40989293  0.33289945  0.07596787  1
  Zn  Zn38  1  0.34477105  0.09251153  0.10092952  1
  H  H39  1  0.47771968  0.38369708  0.18440400  1
  C  C40  1  0.46446116  0.31288014  0.04497540  1
  O  O41  1  0.31029302  0.35794123  0.48578066  1
  H  H42  1  0.43548327  0.27789828  0.47807495  1
  O  O43  1  0.25592548  0.28321135  0.08561010  1
  C  C44  1  0.38054780  0.23914007  0.65030649  1
  H  H45  1  0.33445201  0.25376863  0.68119506  1
  C  C46  1  0.31195005  0.32925652  0.54851942  1
  C  C47  1  0.43906929  0.19817132  0.68238933  1
  C  C48  1  0.43666430  0.26342374  0.53590721  1
  C  C49  1  0.38078929  0.27611056  0.57622269  1
  O  O50  1  0.26237715  0.35166349  0.59136643  1
  O  O51  1  0.47017703  0.27872803  0.97913217  1
  C  C52  1  0.43817234  0.15781361  0.76396621  1
  O  O53  1  0.38943453  0.16131126  0.80342064  1
  Zn  Zn54  1  0.46387089  0.01715551  0.90429789  1
  C  C55  1  0.49542906  0.25237795  0.57360025  1
  C  C56  1  0.49910309  0.21699266  0.64740148  1
  O  O57  1  0.49065520  0.11098436  0.79346583  1
  C  C58  1  0.37893078  0.85563981  0.42675814  1
  O  O59  1  0.32203579  0.85403892  0.02397960  1
  C  C60  1  0.26271278  0.85471943  0.42531674  1
  C  C61  1  0.32175402  0.83187723  0.46437303  1
  C  C62  1  0.44577202  0.81892913  0.46534295  1
  C  C63  1  0.26282634  0.88110558  0.35068844  1
  C  C64  1  0.38165774  0.88481954  0.35311921  1
  C  C65  1  0.32177335  0.90649039  0.31748986  1
  H  H66  1  0.42722223  0.90902715  0.32735173  1
  C  C67  1  0.32141371  0.94644512  0.23775371  1
  O  O68  1  0.27299495  0.94735611  0.20089501  1
  O  O69  1  0.37601045  0.99833974  0.21092097  1
  O  O70  1  0.49551659  0.81073927  0.42572700  1
  C  C71  1  0.32295302  0.86478585  0.95789661  1
  O  O72  1  0.37286430  0.85404373  0.91984728  1
  H  H73  1  0.30414403  0.83607300  0.81481960  1
  O  O74  1  0.44099347  0.76795366  0.52607069  1
  H  H75  1  0.32140707  0.78769966  0.52234921  1
  C  C76  1  0.25853688  0.86540139  0.92138112  1
  C  C77  1  0.25840870  0.84529617  0.84796418  1
  C  C78  1  0.58424273  0.29571561  0.04302208  1
  C  C79  1  0.64118047  0.31424393  0.08275173  1
  C  C80  1  0.58496443  0.37432770  0.19013254  1
  H  H81  1  0.69400266  0.36900482  0.18281134  1
  O  O82  1  0.63360125  0.44292833  0.30600620  1
  O  O83  1  0.55587721  0.27812765  0.46861893  1
  C  C84  1  0.64438290  0.35509521  0.15554435  1
  C  C85  1  0.70003733  0.28912839  0.03557388  1
  C  C86  1  0.52800970  0.32097798  0.08299747  1
  C  C87  1  0.58422394  0.43952885  0.26966106  1
  C  C88  1  0.52488708  0.36532389  0.15739845  1
  C  C89  1  0.55852174  0.26533813  0.53395015  1
  H  H90  1  0.54515616  0.19130539  0.67720608  1
  O  O91  1  0.61138397  0.26797672  0.56975390  1
  Zn  Zn92  1  0.69626858  0.45589546  0.59880654  1
  H  H93  1  0.58615794  0.26558783  0.98361258  1
  O  O94  1  0.70091022  0.26299637  0.97221098  1
  Zn  Zn95  1  0.56080875  0.57909863  0.41344818  1
  O  O96  1  0.64578659  0.78231259  0.41940847  1
  C  C97  1  0.69789075  0.75491952  0.45633517  1
  O  O98  1  0.58512142  0.78955683  0.02607317  1
  H  H99  1  0.70989910  0.83824575  0.01098970  1
  H  H100  1  0.70848418  0.71697325  0.31893913  1
  O  O101  1  0.53214281  0.50415693  0.29597079  1
  C  C102  1  0.70738799  0.77892799  0.95400716  1
  C  C103  1  0.69880058  0.66465233  0.80683359  1
  C  C104  1  0.64918701  0.75227796  0.91943909  1
  O  O105  1  0.69753655  0.72654199  0.52091606  1
  H  H106  1  0.59349409  0.66900930  0.82700742  1
  C  C107  1  0.64237270  0.69270183  0.84861737  1
  O  O108  1  0.65117213  0.57316036  0.69400780  1
  C  C109  1  0.58640956  0.77624293  0.96286563  1
  C  C110  1  0.70008325  0.61987975  0.73080875  1
  O  O111  1  0.53547023  0.78507663  0.92230742  1
  H  H112  1  0.97375100  0.24213893  0.18269169  1
  C  C113  1  0.96034221  0.32703241  0.04208672  1
  O  O114  1  0.90938744  0.34043749  0.07733747  1
  H  H115  1  0.95030605  0.21980408  0.49135692  1
  O  O116  1  0.82349527  0.18381800  0.49151621  1
  O  O117  1  0.75107830  0.33600258  0.07327995  1
  C  C118  1  0.89093501  0.29316474  0.58760340  1
  C  C119  1  0.94988212  0.38573400  0.68816891  1
  C  C120  1  0.82673364  0.24600463  0.55247918  1
  C  C121  1  0.88829619  0.34759957  0.65936664  1
  C  C122  1  0.94957990  0.28442963  0.54741509  1
  H  H123  1  0.83814673  0.35356685  0.68572849  1
  O  O124  1  0.77782160  0.26775963  0.59601708  1
  O  O125  1  0.96089587  0.35438433  0.97463224  1
  O  O126  1  0.89570990  0.44362065  0.80089765  1
  C  C127  1  0.94586599  0.45850166  0.76465401  1
  C  C128  1  0.81242979  0.73260615  0.22303163  1
  C  C129  1  0.87617573  0.72512138  0.34043760  1
  H  H130  1  0.92614902  0.72534557  0.31284550  1
  C  C131  1  0.87491331  0.72672595  0.41464191  1
  C  C132  1  0.81707955  0.73505562  0.30562931  1
  O  O133  1  0.83156458  0.79115206  0.01216096  1
  O  O134  1  0.86457547  0.70135090  0.18692268  1
  C  C135  1  0.94300973  0.73531130  0.44741806  1
  C  C136  1  0.81985991  0.74121883  0.45556537  1
  C  C137  1  0.75763199  0.72630590  0.34193436  1
  C  C138  1  0.76110160  0.73541209  0.41588847  1
  O  O139  1  0.76014971  0.73065407  0.19387314  1
  Zn  Zn140  1  0.82573963  0.55837940  0.08402985  1
  O  O141  1  0.99228422  0.75406688  0.40430488  1
  C  C142  1  0.82827038  0.78701617  0.94595135  1
  O  O143  1  0.87723529  0.79812900  0.90392452  1
  Zn  Zn144  1  0.95861987  0.60155534  0.90636739  1
  H  H145  1  0.80510590  0.67126200  0.81233038  1
  O  O146  1  0.94721815  0.69659013  0.51086158  1
  H  H147  1  0.82246196  0.75677250  0.51226548  1
  C  C148  1  0.76495163  0.74713212  0.91279937  1
  C  C149  1  0.76005774  0.69864697  0.84088395  1
  O  O150  1  0.75294163  0.60825374  0.69981605  1
  O  O151  1  0.99764833  0.52290758  0.79685559  1
