# generated using pymatgen
data_ZnH2(CN2)5
_symmetry_space_group_name_H-M   'P 1'
_cell_length_a   16.85252928
_cell_length_b   20.96267117
_cell_length_c   14.92058910
_cell_angle_alpha   90.00000000
_cell_angle_beta   90.00000000
_cell_angle_gamma   90.00000000
_symmetry_Int_Tables_number   1
_chemical_formula_structural   ZnH2(CN2)5
_chemical_formula_sum   'Zn16 H32 C80 N160'
_cell_volume   5271.05663569
_cell_formula_units_Z   16
loop_
 _symmetry_equiv_pos_site_id
 _symmetry_equiv_pos_as_xyz
  1  'x, y, z'
loop_
 _atom_site_type_symbol
 _atom_site_label
 _atom_site_symmetry_multiplicity
 _atom_site_fract_x
 _atom_site_fract_y
 _atom_site_fract_z
 _atom_site_occupancy
  C  C0  1  0.37841462  0.15773278  0.06150540  1
  N  N1  1  0.34654095  0.13357450  0.40820550  1
  C  C2  1  0.38111763  0.14034759  0.24380551  1
  Zn  Zn3  1  0.48292117  0.04560598  0.35487919  1
  N  N4  1  0.38868908  0.10054746  0.31411168  1
  N  N5  1  0.11138859  0.12808907  0.33259419  1
  C  C6  1  0.31340688  0.19995162  0.02859518  1
  N  N7  1  0.42982276  0.13194088  0.00182924  1
  N  N8  1  0.09367129  0.07540408  0.24541122  1
  N  N9  1  0.45869165  0.08535475  0.13172522  1
  N  N10  1  0.07922284  0.17880118  0.31583445  1
  N  N11  1  0.32039695  0.18558249  0.38405667  1
  C  C12  1  0.40358154  0.12913937  0.14689441  1
  C  C13  1  0.47554447  0.08684423  0.04229090  1
  C  C14  1  0.04311592  0.10423674  0.19181252  1
  N  N15  1  0.34467169  0.19252321  0.27195101  1
  N  N16  1  0.02737442  0.16460260  0.21733431  1
  N  N17  1  0.03739054  0.00469211  0.12201843  1
  H  H18  1  0.48684610  0.23561570  0.06000310  1
  N  N19  1  0.27788412  0.23235039  0.09395150  1
  C  C20  1  0.00678260  0.06426247  0.11551187  1
  N  N21  1  0.43878346  0.23600645  0.84027556  1
  C  C22  1  0.39493266  0.10587629  0.68166610  1
  C  C23  1  0.39958528  0.19363352  0.61737057  1
  N  N24  1  0.28553047  0.21451840  0.95011940  1
  C  C25  1  0.35528912  0.06648561  0.75886116  1
  N  N26  1  0.08212195  0.02220810  0.67869385  1
  Zn  Zn27  1  0.33135189  0.20272693  0.82060331  1
  N  N28  1  0.32480445  0.10137255  0.82295497  1
  N  N29  1  0.37315452  0.16701527  0.69160107  1
  N  N30  1  0.28180628  0.05198764  0.90271653  1
  H  H31  1  0.40033230  0.24672637  0.60847774  1
  H  H32  1  0.43098746  0.13981282  0.93487614  1
  C  C33  1  0.44169773  0.09288568  0.59998433  1
  N  N34  1  0.15503803  0.24213050  0.75235021  1
  N  N35  1  0.43666018  0.15034834  0.56014870  1
  N  N36  1  0.34850768  0.00401588  0.77378063  1
  H  H37  1  0.46186019  0.16463398  0.50166870  1
  N  N38  1  0.07281731  0.05548980  0.61137611  1
  C  C39  1  0.48489769  0.03533110  0.56994626  1
  H  H40  1  0.05793602  0.24280189  0.94407266  1
  C  C41  1  0.38811110  0.40595685  0.19033632  1
  N  N42  1  0.34165671  0.36696323  0.23392399  1
  C  C43  1  0.44651348  0.37422558  0.12789630  1
  N  N44  1  0.43220644  0.30995724  0.13267307  1
  N  N45  1  0.29952818  0.47006976  0.28189756  1
  N  N46  1  0.28015033  0.41456062  0.29525579  1
  C  C47  1  0.48510853  0.28462566  0.07448503  1
  N  N48  1  0.38064983  0.46572440  0.20876131  1
  Zn  Zn49  1  0.33351855  0.27050006  0.20246489  1
  N  N50  1  0.20367144  0.27633688  0.04597072  1
  H  H51  1  0.48270015  0.47839751  0.38103943  1
  N  N52  1  0.00269993  0.29451541  0.05633344  1
  C  C53  1  0.40955147  0.35141468  0.83527296  1
  C  C54  1  0.04124113  0.28976415  0.98036599  1
  C  C55  1  0.24816109  0.32604211  0.79804825  1
  N  N56  1  0.05240678  0.34902571  0.94087765  1
  N  N57  1  0.17765013  0.35090962  0.79033260  1
  N  N58  1  0.43726468  0.41130448  0.84035843  1
  C  C59  1  0.00605784  0.46276104  0.96784172  1
  Zn  Zn60  1  0.14493974  0.44938630  0.83092461  1
  H  H61  1  0.08021045  0.35515272  0.87799888  1
  C  C62  1  0.37554004  0.45346757  0.84199789  1
  C  C63  1  0.32305555  0.36169937  0.82099147  1
  C  C64  1  0.46389857  0.29557906  0.84153441  1
  N  N65  1  0.30591186  0.42411499  0.82666901  1
  N  N66  1  0.11345673  0.28933772  0.76133443  1
  N  N67  1  0.00035864  0.43371230  0.66616201  1
  N  N68  1  0.05675378  0.48772503  0.91070971  1
  N  N69  1  0.24923151  0.26295539  0.77848021  1
  N  N70  1  0.07062084  0.48156511  0.72733966  1
  H  H71  1  0.49544817  0.42760019  0.85611393  1
  C  C72  1  0.01770855  0.39448297  0.99149868  1
  N  N73  1  0.20356706  0.26544832  0.96514400  1
  N  N74  1  0.28674098  0.68858398  0.06788334  1
  H  H75  1  0.06704065  0.70271456  0.05696760  1
  N  N76  1  0.48899767  0.62864172  0.15743928  1
  Zn  Zn77  1  0.45656472  0.53305016  0.16329313  1
  N  N78  1  0.02768732  0.62192767  0.23798525  1
  N  N79  1  0.01867070  0.56946257  0.20447573  1
  N  N80  1  0.28417711  0.72962727  0.12814632  1
  N  N81  1  0.49520883  0.68176603  0.06704307  1
  N  N82  1  0.49441003  0.56240035  0.29380085  1
  C  C83  1  0.49777980  0.52930209  0.37155061  1
  N  N84  1  0.45754998  0.55766364  0.66389174  1
  N  N85  1  0.40213123  0.57147601  0.71350387  1
  C  C86  1  0.13373776  0.58817805  0.70761633  1
  C  C87  1  0.23229687  0.57119282  0.85995303  1
  Zn  Zn88  1  0.34092548  0.68308481  0.84766011  1
  N  N89  1  0.22981050  0.65830255  0.77255385  1
  N  N90  1  0.21109877  0.51606405  0.89626644  1
  N  N91  1  0.28983364  0.60132152  0.89759305  1
  N  N92  1  0.02988995  0.53611543  0.60970612  1
  C  C93  1  0.19144583  0.59945044  0.77732453  1
  N  N94  1  0.43500614  0.62889540  0.78521867  1
  N  N95  1  0.13611897  0.64368348  0.66285461  1
  H  H96  1  0.09794849  0.65872627  0.61420296  1
  N  N97  1  0.03241672  0.56886828  0.90561699  1
  C  C98  1  0.19467582  0.68143143  0.69894977  1
  C  C99  1  0.07895580  0.53421271  0.67890273  1
  N  N100  1  0.27728108  0.50447638  0.98893638  1
  H  H101  1  0.21817257  0.72463454  0.66057218  1
  N  N102  1  0.31673552  0.55254915  0.98986282  1
  N  N103  1  0.33909132  0.71816090  0.97934397  1
  H  H104  1  0.48270681  0.72437781  0.91418097  1
  H  H105  1  0.38507570  0.50195625  0.86571094  1
  N  N106  1  0.46460809  0.84849535  0.33867643  1
  N  N107  1  0.38910052  0.85705655  0.41981487  1
  C  C108  1  0.03165349  0.85662999  0.25504678  1
  N  N109  1  0.29507806  0.87183061  0.10188613  1
  C  C110  1  0.07390883  0.83129412  0.17133444  1
  Zn  Zn111  1  0.12171199  0.97612792  0.22865132  1
  N  N112  1  0.37708286  0.91367402  0.42914937  1
  N  N113  1  0.21702528  0.92932544  0.19068133  1
  N  N114  1  0.35766904  0.92754702  0.14531763  1
  N  N115  1  0.03457798  0.77627263  0.14713988  1
  N  N116  1  0.33346242  0.79376418  0.08763804  1
  N  N117  1  0.31511808  0.96098665  0.19102717  1
  C  C118  1  0.22414350  0.87939641  0.13638236  1
  C  C119  1  0.15151248  0.83880745  0.12603431  1
  H  H120  1  0.43380907  0.88820750  0.05172325  1
  N  N121  1  0.05106617  0.91147714  0.29058951  1
  N  N122  1  0.44177735  0.95172382  0.35453268  1
  N  N123  1  0.14844668  0.78957621  0.07013049  1
  C  C124  1  0.47726021  0.90659867  0.31278688  1
  C  C125  1  0.36098521  0.77894654  0.00354119  1
  H  H126  1  0.19544372  0.77103019  0.03558215  1
  C  C127  1  0.08373944  0.75230573  0.08433339  1
  H  H128  1  0.01696327  0.91979272  0.05447461  1
  N  N129  1  0.44316511  0.90098458  0.83767873  1
  N  N130  1  0.34615111  0.80808047  0.60461747  1
  Zn  Zn131  1  0.42005469  0.94505924  0.70876740  1
  N  N132  1  0.00771583  0.87820684  0.85091345  1
  N  N133  1  0.38998265  0.84808732  0.69291146  1
  C  C134  1  0.40465743  0.82742703  0.94831259  1
  C  C135  1  0.42125277  0.83925588  0.85328869  1
  C  C136  1  0.38829179  0.81073894  0.76577956  1
  C  C137  1  0.46034379  0.92270911  0.92162025  1
  N  N138  1  0.36167901  0.75395512  0.74969811  1
  N  N139  1  0.43973952  0.87902380  0.98393544  1
  N  N140  1  0.33496297  0.75443813  0.63393664  1
  N  N141  1  0.29955485  0.99919122  0.87782247  1
  N  N142  1  0.49287705  0.98508315  0.62212407  1
  H  H143  1  0.47313833  0.97434254  0.93132426  1
  C  C144  1  0.60398851  0.03734962  0.21005316  1
  Zn  Zn145  1  0.72656215  0.04382382  0.06671756  1
  N  N146  1  0.62282382  0.14675936  0.28041006  1
  N  N147  1  0.66192185  0.06809760  0.16846964  1
  N  N148  1  0.52179629  0.02772935  0.49102806  1
  N  N149  1  0.67151314  0.14500039  0.21999941  1
  N  N150  1  0.57144450  0.07486141  0.27366104  1
  C  C151  1  0.94248596  0.06445904  0.05010511  1
  N  N152  1  0.90146595  0.17747172  0.04945256  1
  Zn  Zn153  1  0.96786454  0.22461037  0.13849621  1
  C  C154  1  0.88524956  0.11824043  0.03059440  1
  N  N155  1  0.81074097  0.10756356  0.00951047  1
  N  N156  1  0.81658898  0.22063932  0.00849437  1
  N  N157  1  0.93686927  0.00365855  0.02182195  1
  H  H158  1  0.52117254  0.05650276  0.00473049  1
  N  N159  1  0.57997601  0.22655572  0.83743426  1
  N  N160  1  0.52142612  0.19097931  0.83572024  1
  N  N161  1  0.98379074  0.03310725  0.56502424  1
  N  N162  1  0.76801712  0.18194174  0.98499107  1
  N  N163  1  0.89285932  0.32918563  0.30546891  1
  N  N164  1  0.78797650  0.43064147  0.03341697  1
  N  N165  1  0.87518993  0.38523353  0.29638809  1
  C  C166  1  0.53065050  0.45059663  0.01876710  1
  N  N167  1  0.90731961  0.41294091  0.19206137  1
  N  N168  1  0.76957161  0.35460788  0.07740845  1
  N  N169  1  0.52615252  0.32934542  0.02944250  1
  N  N170  1  0.93697497  0.30959549  0.20180496  1
  C  C171  1  0.94474921  0.36294071  0.15805648  1
  N  N172  1  0.71745605  0.32933596  0.02993987  1
  C  C173  1  0.98946082  0.35905970  0.06986296  1
  C  C174  1  0.50518189  0.38897540  0.05732605  1
  Zn  Zn175  1  0.87225708  0.48719972  0.10237205  1
  N  N176  1  0.57546215  0.45551560  0.94607701  1
  N  N177  1  0.56995189  0.41000366  0.65522615  1
  C  C178  1  0.75616445  0.43402954  0.95099182  1
  N  N179  1  0.58268864  0.45629086  0.60833245  1
  N  N180  1  0.71140595  0.38319721  0.93756336  1
  Zn  Zn181  1  0.60834087  0.37896307  0.86962197  1
  N  N182  1  0.62395422  0.42731930  0.75275094  1
  C  C183  1  0.66492954  0.48166469  0.74064289  1
  N  N184  1  0.54043367  0.30089491  0.84578074  1
  H  H185  1  0.57089178  0.32246110  0.98025216  1
  C  C186  1  0.76883400  0.48608819  0.88354208  1
  N  N187  1  0.97719452  0.46771941  0.60493842  1
  N  N188  1  0.67364988  0.66058731  0.16860130  1
  C  C189  1  0.73869450  0.67880995  0.21647570  1
  N  N190  1  0.93112269  0.65775336  0.24020479  1
  H  H191  1  0.65886851  0.57850166  0.07974685  1
  C  C192  1  0.69467159  0.60383824  0.12646295  1
  C  C193  1  0.53585946  0.62682934  0.41256920  1
  N  N194  1  0.52157909  0.73246098  0.09368179  1
  C  C195  1  0.79785750  0.62642918  0.20050628  1
  C  C196  1  0.73692057  0.73859300  0.26611259  1
  H  H197  1  0.62161555  0.67899961  0.14892269  1
  N  N198  1  0.92069631  0.56239529  0.18265210  1
  C  C199  1  0.88382023  0.61309740  0.21257582  1
  N  N200  1  0.76921027  0.58036358  0.14369232  1
  N  N201  1  0.55018555  0.74208244  0.43981408  1
  C  C202  1  0.55714049  0.68314964  0.46930542  1
  N  N203  1  0.53045223  0.72114337  0.21069287  1
  N  N204  1  0.52243752  0.56636460  0.43934462  1
  N  N205  1  0.88096574  0.67504329  0.02075656  1
  C  C206  1  0.52088369  0.62216089  0.31590155  1
  N  N207  1  0.87225556  0.74249304  0.08589065  1
  C  C208  1  0.51559362  0.66076777  0.22878774  1
  Zn  Zn209  1  0.91435979  0.74815709  0.21884142  1
  N  N210  1  0.50823242  0.50684708  0.05080458  1
  N  N211  1  0.95859052  0.50301985  0.00223004  1
  C  C212  1  0.64045466  0.71444830  0.79484212  1
  C  C213  1  0.81977234  0.57804617  0.82562209  1
  H  H214  1  0.85911112  0.54562638  0.94219772  1
  C  C215  1  0.55903722  0.69191637  0.80781879  1
  N  N216  1  0.53641645  0.72505246  0.88150493  1
  Zn  Zn217  1  0.63607883  0.60641307  0.62835148  1
  N  N218  1  0.58473425  0.53446645  0.92293563  1
  N  N219  1  0.76143008  0.56029024  0.76962774  1
  N  N220  1  0.72190180  0.66847900  0.66868966  1
  N  N221  1  0.53485062  0.60680890  0.69953000  1
  N  N222  1  0.82223238  0.68087370  0.63187850  1
  C  C223  1  0.71517115  0.70624126  0.73691440  1
  N  N224  1  0.57847903  0.68055377  0.55413981  1
  H  H225  1  0.85019682  0.62638693  0.82071749  1
  N  N226  1  0.84970460  0.68916782  0.94889286  1
  N  N227  1  0.97840918  0.57752132  0.95868453  1
  N  N228  1  0.82051518  0.53456783  0.89177089  1
  C  C229  1  0.72784916  0.50695642  0.80247013  1
  N  N230  1  0.84785381  0.72191767  0.68019253  1
  C  C231  1  0.50836153  0.64380412  0.76479518  1
  H  H232  1  0.51747162  0.54697104  0.50516481  1
  N  N233  1  0.55196373  0.56540184  0.98263623  1
  N  N234  1  0.64359373  0.50950216  0.66463039  1
  N  N235  1  0.77063537  0.74577525  0.75468565  1
  H  H236  1  0.82707595  0.96806151  0.22863505  1
  C  C237  1  0.58597361  0.96858245  0.19655307  1
  C  C238  1  0.82519690  0.85206934  0.07553804  1
  C  C239  1  0.54072603  0.91747512  0.24379556  1
  H  H240  1  0.66578690  0.95459149  0.08420188  1
  C  C241  1  0.81746713  0.93550772  0.16935431  1
  H  H242  1  0.86611171  0.84740166  0.21478254  1
  H  H243  1  0.66457140  0.84117046  0.12295095  1
  N  N244  1  0.84280227  0.87296186  0.16075345  1
  N  N245  1  0.57050232  0.85868047  0.22195009  1
  N  N246  1  0.94594062  0.86810936  0.38070168  1
  N  N247  1  0.62636874  0.93601618  0.13467073  1
  N  N248  1  0.78168050  0.95555423  0.09644427  1
  Zn  Zn249  1  0.55601600  0.77800422  0.31123979  1
  C  C250  1  0.62174208  0.87262357  0.15497925  1
  N  N251  1  0.79324429  0.82943723  0.35132938  1
  C  C252  1  0.78089957  0.90665271  0.03935762  1
  N  N253  1  0.71988237  0.83725673  0.35373621  1
  N  N254  1  0.97130349  0.82380838  0.28479732  1
  N  N255  1  0.99057746  0.91257666  0.38826280  1
  C  C256  1  0.83765134  0.78808463  0.04048127  1
  N  N257  1  0.80746067  0.75849044  0.29690027  1
  N  N258  1  0.67780591  0.77634520  0.29531658  1
  N  N259  1  0.57172201  0.95227210  0.49531805  1
  C  C260  1  0.99898678  0.97055224  0.06308610  1
  C  C261  1  0.89434185  0.88403736  0.74593455  1
  N  N262  1  0.55242085  0.92927527  0.56776761  1
  N  N263  1  0.96340926  0.90759273  0.75720988  1
  Zn  Zn264  1  0.76486016  0.81220962  0.85651770  1
  N  N265  1  0.81753564  0.76744441  0.95946538  1
  N  N266  1  0.71517714  0.89521098  0.88240720  1
  N  N267  1  0.87531341  0.84297326  0.81006525  1
  N  N268  1  0.70138513  0.98562089  0.95952300  1
  N  N269  1  0.64714033  0.93839659  0.82302692  1
  C  C270  1  0.73146278  0.92826629  0.95658499  1
  H  H271  1  0.59061924  0.79632562  0.96668882  1
  H  H272  1  0.73239570  0.86052952  0.66498476  1
  N  N273  1  0.63376024  0.98699603  0.86581063  1
  C  C274  1  0.59562203  0.76353235  0.90834282  1
  C  C275  1  0.84738405  0.90852073  0.66820212  1
  N  N276  1  0.95797308  0.83943573  0.87791076  1
  N  N277  1  0.77433266  0.89045522  0.64218923  1
  C  C278  1  0.86752677  0.95671740  0.60117357  1
  N  N279  1  0.66267104  0.76006650  0.85634045  1
  N  N280  1  0.57087956  0.79232379  0.52368292  1
  N  N281  1  0.58632262  0.75848271  0.58898742  1
  C  C282  1  0.75281416  0.91644486  0.56346076  1
  N  N283  1  0.81317010  0.95422529  0.53446389  1
  H  H284  1  0.90066220  0.98090669  0.97517947  1
  C  C285  1  0.94756075  0.99045970  0.61570226  1
  H  H286  1  0.69386332  0.91357978  0.53349254  1
  N  N287  1  0.99730024  0.97659726  0.68569186  1
