# generated using pymatgen
data_Zn2H11C22NO8
_symmetry_space_group_name_H-M   'P 1'
_cell_length_a   15.92685892
_cell_length_b   11.64140302
_cell_length_c   18.53026944
_cell_angle_alpha   90.00000000
_cell_angle_beta   90.00000000
_cell_angle_gamma   90.00000000
_symmetry_Int_Tables_number   1
_chemical_formula_structural   Zn2H11C22NO8
_chemical_formula_sum   'Zn12 H66 C132 N6 O48'
_cell_volume   3435.71548240
_cell_formula_units_Z   6
loop_
 _symmetry_equiv_pos_site_id
 _symmetry_equiv_pos_as_xyz
  1  'x, y, z'
loop_
 _atom_site_type_symbol
 _atom_site_label
 _atom_site_symmetry_multiplicity
 _atom_site_fract_x
 _atom_site_fract_y
 _atom_site_fract_z
 _atom_site_occupancy
  C  C0  1  0.16399008  0.20661682  0.07427971  1
  Zn  Zn1  1  0.28675513  0.00514870  0.13420943  1
  C  C2  1  0.44132717  0.42892963  0.20642671  1
  C  C3  1  0.09701466  0.17426030  0.11984051  1
  C  C4  1  0.42658528  0.11925227  0.07721721  1
  C  C5  1  0.09436944  0.17874794  0.20060760  1
  H  H6  1  0.25560937  0.32070034  0.12120679  1
  N  N7  1  0.24509386  0.23830350  0.10433229  1
  H  H8  1  0.29163638  0.23096583  0.06848926  1
  O  O9  1  0.38397167  0.12131114  0.13475769  1
  H  H10  1  0.22618006  0.21434574  0.21809412  1
  C  C11  1  0.02680840  0.13219712  0.08053951  1
  H  H12  1  0.46273516  0.33183107  0.03693800  1
  H  H13  1  0.42083091  0.48840014  0.16241506  1
  C  C14  1  0.39639046  0.17084935  0.00810502  1
  C  C15  1  0.16630566  0.19550425  0.24213663  1
  C  C16  1  0.01303624  0.16191929  0.22746171  1
  O  O17  1  0.49710235  0.06632576  0.07768440  1
  C  C18  1  0.02066354  0.13505441  0.00456642  1
  O  O19  1  0.28721753  0.40377653  0.47496573  1
  Zn  Zn20  1  0.22776139  0.12858576  0.45555912  1
  C  C21  1  0.00619563  0.16653812  0.30125632  1
  Zn  Zn22  1  0.21448769  0.41951093  0.38186021  1
  C  C23  1  0.15640595  0.20560668  0.31813015  1
  C  C24  1  0.47742213  0.26052825  0.31621941  1
  C  C25  1  0.41185310  0.34251362  0.32598578  1
  H  H26  1  0.38080361  0.12023497  0.38030295  1
  O  O27  1  0.22070667  0.23119716  0.36290665  1
  H  H28  1  0.38658099  0.35177481  0.38163361  1
  O  O29  1  0.08654994  0.42471838  0.36988944  1
  C  C30  1  0.44053299  0.11527923  0.41063332  1
  C  C31  1  0.07676988  0.18375217  0.34632748  1
  H  H32  1  0.06228706  0.20322422  0.40478335  1
  C  C33  1  0.45338194  0.04259598  0.47036385  1
  C  C34  1  0.39409679  0.42726751  0.27166254  1
  H  H35  1  0.34973796  0.49654996  0.28068344  1
  C  C36  1  0.40905001  0.34995616  0.53430035  1
  O  O37  1  0.24592492  0.14316806  0.68116843  1
  H  H38  1  0.41242991  0.19626038  0.60296477  1
  C  C39  1  0.45016592  0.27498143  0.58290496  1
  C  C40  1  0.06028564  0.15819230  0.68788649  1
  H  H41  1  0.08301511  0.10842420  0.63858684  1
  O  O42  1  0.28398329  0.23421519  0.53135770  1
  C  C43  1  0.21278249  0.20093633  0.73107712  1
  H  H44  1  0.22827244  0.46077452  0.59623414  1
  C  C45  1  0.32157168  0.44712240  0.68341430  1
  H  H46  1  0.31494432  0.35035025  0.69450684  1
  C  C47  1  0.11700127  0.20394794  0.73719549  1
  O  O48  1  0.11960544  0.04000012  0.50192021  1
  C  C49  1  0.32192532  0.32459146  0.51220725  1
  C  C50  1  0.45459878  0.44539009  0.50844449  1
  C  C51  1  0.00555621  0.28587347  0.80871553  1
  C  C52  1  0.24834031  0.20782133  0.95441052  1
  H  H53  1  0.08437143  0.16601635  0.90315813  1
  C  C54  1  0.35894884  0.37160011  0.95313309  1
  C  C55  1  0.16613222  0.19652098  0.99678265  1
  H  H56  1  0.14234832  0.30895659  0.83365213  1
  Zn  Zn57  1  0.36339654  0.22520764  0.89955248  1
  H  H58  1  0.22592762  0.39342375  0.91631935  1
  C  C59  1  0.09266139  0.26758124  0.79610187  1
  C  C60  1  0.27384284  0.33753222  0.93915578  1
  C  C61  1  0.08937286  0.16477705  0.96282478  1
  C  C62  1  0.02293797  0.45541998  0.89991418  1
  O  O63  1  0.25516152  0.24484287  0.77940545  1
  H  H64  1  0.41339402  0.47034617  0.76705791  1
  C  C65  1  0.32021837  0.12089332  0.97794176  1
  C  C66  1  0.41822945  0.29382457  0.99552104  1
  H  H67  1  0.10235021  0.48599257  0.80820758  1
  C  C68  1  0.37432123  0.49761193  0.93954922  1
  H  H69  1  0.29035362  0.04121623  0.99787413  1
  O  O70  1  0.31854970  0.86829094  0.19971334  1
  O  O71  1  0.37394335  0.71292660  0.15061341  1
  O  O72  1  0.21977547  0.91828584  0.05890762  1
  C  C73  1  0.21220200  0.81533714  0.03632530  1
  C  C74  1  0.06095351  0.83166100  0.07344956  1
  C  C75  1  0.37752983  0.80077520  0.18862842  1
  H  H76  1  0.07342911  0.91834347  0.09263189  1
  Zn  Zn77  1  0.41445311  0.72495365  0.03242640  1
  C  C78  1  0.12455206  0.76855868  0.03851757  1
  C  C79  1  0.45725632  0.82894658  0.22593665  1
  C  C80  1  0.11053269  0.66362161  0.00449096  1
  C  C81  1  0.02827242  0.61531088  0.00616536  1
  O  O82  1  0.27093090  0.75534412  0.01403314  1
  H  H83  1  0.13837042  0.87928948  0.40084709  1
  H  H84  1  0.41568464  0.74518763  0.32358580  1
  O  O85  1  0.25641930  0.58884983  0.33349720  1
  C  C86  1  0.16706864  0.82113281  0.44312222  1
  O  O87  1  0.18965757  0.74592028  0.29873688  1
  C  C88  1  0.21621236  0.68316047  0.34533913  1
  C  C89  1  0.20868468  0.72113019  0.42485272  1
  H  H90  1  0.28514935  0.57837384  0.45601426  1
  C  C91  1  0.24147914  0.64954756  0.47629275  1
  C  C92  1  0.00111756  0.59593408  0.39373872  1
  C  C93  1  0.38247984  0.96986336  0.49700931  1
  C  C94  1  0.04326257  0.50902856  0.34271970  1
  C  C95  1  0.01618372  0.58128483  0.46684233  1
  O  O96  1  0.31579623  0.97844169  0.46414673  1
  C  C97  1  0.47001164  0.78867369  0.29926141  1
  O  O98  1  0.03616925  0.51701443  0.27808126  1
  H  H99  1  0.05526089  0.51143621  0.48769539  1
  H  H100  1  0.42747977  0.50842067  0.47192029  1
  C  C101  1  0.38321990  0.63298211  0.71561071  1
  H  H102  1  0.38576834  0.84035974  0.69210492  1
  H  H103  1  0.18556473  0.79632406  0.62885610  1
  N  N104  1  0.33614751  0.81452720  0.65866318  1
  C  C105  1  0.32921847  0.69009050  0.66478324  1
  C  C106  1  0.28030831  0.62332880  0.61504564  1
  Zn  Zn107  1  0.25406056  0.96649441  0.67272682  1
  C  C108  1  0.23198401  0.67197972  0.55074390  1
  C  C109  1  0.18705051  0.77049124  0.57088975  1
  C  C110  1  0.13319627  0.96123663  0.54381144  1
  C  C111  1  0.37728851  0.51383966  0.72625415  1
  O  O112  1  0.39957933  0.91164269  0.55382369  1
  H  H113  1  0.35699932  0.83290305  0.60155478  1
  O  O114  1  0.14206682  0.97293026  0.61220547  1
  C  C115  1  0.16265010  0.84625473  0.51595759  1
  H  H116  1  0.12073609  0.77791961  0.72518564  1
  C  C117  1  0.45432419  0.70748207  0.74713968  1
  C  C118  1  0.27360953  0.50370000  0.63045108  1
  O  O119  1  0.24337954  0.89373130  0.78112741  1
  H  H120  1  0.10152317  0.59266335  0.87131529  1
  C  C121  1  0.09866053  0.87664781  0.82456762  1
  O  O122  1  0.20493165  0.98368216  0.87823959  1
  C  C123  1  0.07599007  0.80040487  0.76986318  1
  C  C124  1  0.44497350  0.75758785  0.81451281  1
  H  H125  1  0.05678072  0.96679670  0.91778804  1
  C  C126  1  0.18824369  0.91577498  0.82976635  1
  C  C127  1  0.49846179  0.89371227  0.91255333  1
  H  H128  1  0.38743033  0.74525992  0.84653471  1
  H  H129  1  0.16319391  0.61211418  0.98307636  1
  N  N130  1  0.08632305  0.50762799  0.86071476  1
  O  O131  1  0.43545040  0.87236749  0.94749909  1
  C  C132  1  0.03624286  0.90944734  0.87372360  1
  O  O133  1  0.36393483  0.53920535  0.87898098  1
  O  O134  1  0.39303415  0.55155690  0.99598810  1
  H  H135  1  0.97117009  0.10250594  0.10752407  1
  Zn  Zn136  1  0.61009582  0.05019405  0.01741517  1
  H  H137  1  0.83265639  0.32374566  0.01009052  1
  C  C138  1  0.60284188  0.29828363  0.08739546  1
  H  H139  1  0.60496467  0.20367955  0.09571175  1
  N  N140  1  0.58439364  0.17929683  0.24320043  1
  C  C141  1  0.64770529  0.34111762  0.02878885  1
  C  C142  1  0.55942442  0.37866525  0.12910707  1
  H  H143  1  0.95556206  0.15315353  0.19862553  1
  H  H144  1  0.62113554  0.19696251  0.19591367  1
  H  H145  1  0.91674025  0.47625732  0.06075311  1
  C  C146  1  0.93404359  0.45230942  0.00614238  1
  C  C147  1  0.84448372  0.31001533  0.17825114  1
  C  C148  1  0.55405722  0.49722653  0.11477993  1
  O  O149  1  0.72507683  0.01016238  0.20458253  1
  C  C150  1  0.50748159  0.34753251  0.19487863  1
  O  O151  1  0.87051754  0.29356107  0.12658424  1
  C  C152  1  0.51985350  0.26016790  0.24792998  1
  C  C153  1  0.64655555  0.45824706  0.01258423  1
  O  O154  1  0.91282725  0.16586832  0.40438561  1
  O  O155  1  0.85660734  0.13037337  0.30155407  1
  H  H156  1  0.51681583  0.45307202  0.37352281  1
  C  C157  1  0.92166492  0.15436407  0.33620648  1
  C  C158  1  0.58086671  0.18052061  0.41312991  1
  O  O159  1  0.74132827  0.16119365  0.47622107  1
  H  H160  1  0.62941823  0.23623060  0.39160787  1
  C  C161  1  0.59390561  0.10750258  0.47199187  1
  H  H162  1  0.62837018  0.18055916  0.28237841  1
  Zn  Zn163  1  0.86198363  0.07962517  0.48855061  1
  C  C164  1  0.50083209  0.18626720  0.38083413  1
  Zn  Zn165  1  0.71937615  0.05585667  0.67078487  1
  O  O166  1  0.64848237  0.21116991  0.67475955  1
  O  O167  1  0.83611042  0.14706926  0.67957941  1
  H  H168  1  0.64400064  0.39635001  0.58956903  1
  O  O169  1  0.92105981  0.08653918  0.59342709  1
  C  C170  1  0.90634248  0.13704508  0.65002501  1
  C  C171  1  0.97677722  0.46027194  0.67309543  1
  C  C172  1  0.53205839  0.29490448  0.59991475  1
  C  C173  1  0.57868195  0.38507165  0.57536994  1
  C  C174  1  0.97631543  0.17536418  0.70149472  1
  H  H175  1  0.96806005  0.44452443  0.55375209  1
  C  C176  1  0.57437203  0.20097255  0.65047479  1
  O  O177  1  0.53386433  0.11955971  0.66662191  1
  C  C178  1  0.53901464  0.46062139  0.52575012  1
  O  O179  1  0.69777697  0.02773008  0.54981256  1
  H  H180  1  0.98319411  0.36306834  0.68347801  1
  C  C181  1  0.53234502  0.03355082  0.50190331  1
  C  C182  1  0.68295336  0.09829019  0.50108337  1
  H  H183  1  0.96657984  0.10225678  0.97938031  1
  O  O184  1  0.71733806  0.29544387  0.91923744  1
  C  C185  1  0.94872277  0.23211847  0.76304657  1
  C  C186  1  0.97828566  0.35511675  0.87506154  1
  C  C187  1  0.90629358  0.31543869  0.91134926  1
  C  C188  1  0.69962286  0.26129250  0.97996010  1
  H  H189  1  0.87174673  0.23847660  0.89169921  1
  H  H190  1  0.68109855  0.48926584  0.96330603  1
  H  H191  1  0.88110711  0.24154791  0.77772211  1
  C  C192  1  0.88243440  0.36611640  0.97728715  1
  O  O193  1  0.71304042  0.15702751  0.99657555  1
  C  C194  1  0.98443254  0.77857050  0.07973591  1
  C  C195  1  0.67585144  0.94860296  0.17047233  1
  C  C196  1  0.96732671  0.67476032  0.04736262  1
  O  O197  1  0.67768549  0.94387111  0.10019949  1
  O  O198  1  0.84352966  0.78319865  0.12853755  1
  H  H199  1  0.90478820  0.63872237  0.05497853  1
  Zn  Zn200  1  0.76507957  0.81675169  0.04023851  1
  C  C201  1  0.59865369  0.53337707  0.05462303  1
  O  O202  1  0.54758566  0.71252671  0.06660794  1
  O  O203  1  0.93102138  0.90963072  0.17266913  1
  C  C204  1  0.91493993  0.83249436  0.12909072  1
  C  C205  1  0.52935420  0.86393671  0.17884626  1
  C  C206  1  0.60722040  0.90073625  0.21581314  1
  H  H207  1  0.51967402  0.87021870  0.11868925  1
  C  C208  1  0.60582725  0.65722537  0.03832006  1
  H  H209  1  0.52759418  0.55929019  0.15582962  1
  Zn  Zn210  1  0.84411974  0.97889144  0.24060998  1
  O  O211  1  0.66754823  0.69565249  0.00692636  1
  O  O212  1  0.84187839  0.85385374  0.32546990  1
  C  C213  1  0.55789811  0.80025265  0.33627303  1
  C  C214  1  0.56054284  0.61107009  0.41898327  1
  C  C215  1  0.65655754  0.77197706  0.43645236  1
  C  C216  1  0.85467866  0.85252918  0.39023080  1
  C  C217  1  0.58752545  0.72529817  0.39567750  1
  O  O218  1  0.82150495  0.92047260  0.43483904  1
  H  H219  1  0.68833852  0.84822140  0.41881740  1
  Zn  Zn220  1  0.51787774  0.95680035  0.28696762  1
  C  C221  1  0.62624881  0.86953518  0.29115584  1
  C  C222  1  0.95225285  0.68654511  0.36754300  1
  H  H223  1  0.69437429  0.85082121  0.30208918  1
  N  N224  1  0.51962228  0.54364644  0.37008545  1
  C  C225  1  0.91221375  0.75870657  0.41776306  1
  C  C226  1  0.57871678  0.56503793  0.49043750  1
  H  H227  1  0.94668792  0.70326741  0.30762267  1
  H  H228  1  0.51836408  0.55099658  0.31469226  1
  C  C229  1  0.68470412  0.71628404  0.49895582  1
  C  C230  1  0.91975468  0.74810604  0.49108340  1
  O  O231  1  0.70550438  0.74112097  0.66152173  1
  H  H232  1  0.88778055  0.80144487  0.53154176  1
  C  C233  1  0.64872134  0.61550035  0.52598538  1
  C  C234  1  0.52944272  0.71746603  0.70798992  1
  C  C235  1  0.67988718  0.81124899  0.70336660  1
  H  H236  1  0.53397947  0.67193081  0.65641131  1
  H  H237  1  0.66729920  0.58875806  0.58031750  1
  O  O238  1  0.72826275  0.89729273  0.72106774  1
  H  H239  1  0.54619722  0.97992931  0.55070372  1
  H  H240  1  0.73328618  0.76135020  0.53143117  1
  C  C241  1  0.97038527  0.50245450  0.60203523  1
  C  C242  1  0.59141156  0.78674494  0.73755815  1
  C  C243  1  0.98066514  0.65664183  0.71804485  1
  C  C244  1  0.97414281  0.53759592  0.73070920  1
  H  H245  1  0.98881903  0.87338824  0.59157814  1
  C  C246  1  0.97274779  0.62454723  0.59108167  1
  C  C247  1  0.96709801  0.70673875  0.64868130  1
  N  N248  1  0.96929497  0.82574794  0.63722358  1
  H  H249  1  0.98935851  0.87177230  0.68084415  1
  C  C250  1  0.96798518  0.65303706  0.51211402  1
  C  C251  1  0.88740575  0.88360486  0.93266921  1
  O  O252  1  0.82876471  0.80762503  0.93602226  1
  O  O253  1  0.89377229  0.95763829  0.97688315  1
  C  C254  1  0.99977847  0.50715238  0.96814574  1
  H  H255  1  0.87126595  0.74022365  0.83088295  1
  C  C256  1  0.93580863  0.77097839  0.82875703  1
  H  H257  1  0.62866607  0.90493812  0.82292468  1
  C  C258  1  0.57870075  0.85100846  0.79927747  1
  C  C259  1  0.95567669  0.85942191  0.87393025  1
  O  O260  1  0.54975394  0.97152580  0.93085134  1
  C  C261  1  0.99811326  0.74760103  0.77476064  1
  C  C262  1  0.50691327  0.83182942  0.84129524  1
  H  H263  1  0.97651099  0.50551240  0.78580273  1
