# generated using pymatgen
data_CuH8C12N3O2
_symmetry_space_group_name_H-M   'P 1'
_cell_length_a   17.04839601
_cell_length_b   14.37815803
_cell_length_c   29.33169963
_cell_angle_alpha   90.00000000
_cell_angle_beta   90.00000000
_cell_angle_gamma   90.00000000
_symmetry_Int_Tables_number   1
_chemical_formula_structural   CuH8C12N3O2
_chemical_formula_sum   'Cu24 H192 C288 N72 O48'
_cell_volume   7189.91914576
_cell_formula_units_Z   24
loop_
 _symmetry_equiv_pos_site_id
 _symmetry_equiv_pos_as_xyz
  1  'x, y, z'
loop_
 _atom_site_type_symbol
 _atom_site_label
 _atom_site_symmetry_multiplicity
 _atom_site_fract_x
 _atom_site_fract_y
 _atom_site_fract_z
 _atom_site_occupancy
  Cu  Cu0  1  0.24137964  0.05685603  0.00875062  1
  H  H1  1  0.09411260  0.35455651  0.13692217  1
  C  C2  1  0.12172474  0.16413267  0.23548722  1
  H  H3  1  0.44065429  0.13143023  0.18433693  1
  C  C4  1  0.11527615  0.01420222  0.12853476  1
  O  O5  1  0.12299679  0.23351693  0.07179776  1
  N  N6  1  0.49040287  0.17479521  0.01199242  1
  N  N7  1  0.39998370  0.32789397  0.07018809  1
  C  C8  1  0.11616387  0.13756579  0.18794150  1
  H  H9  1  0.33818620  0.12504520  0.19200846  1
  H  H10  1  0.37847836  0.37169186  0.04473069  1
  H  H11  1  0.10352125  0.40089927  0.21921426  1
  C  C12  1  0.37077145  0.36091624  0.10877192  1
  C  C13  1  0.11959515  0.17759346  0.10282017  1
  N  N14  1  0.32919194  0.04417460  0.04532523  1
  C  C15  1  0.10733096  0.30119964  0.16419225  1
  C  C16  1  0.11696513  0.20600139  0.15200362  1
  H  H17  1  0.31521174  0.34590189  0.17139916  1
  C  C18  1  0.11474865  0.03886708  0.17598742  1
  H  H19  1  0.38039385  0.22220400  0.16485231  1
  C  C20  1  0.34132124  0.39380124  0.14758261  1
  H  H21  1  0.23254937  0.45706815  0.07923537  1
  C  C22  1  0.37541453  0.08973684  0.12223196  1
  H  H23  1  0.17886736  0.43869453  0.17449322  1
  C  C24  1  0.10842088  0.32704122  0.20960867  1
  C  C25  1  0.38431301  0.14631890  0.16698386  1
  Cu  Cu26  1  0.39879300  0.19448294  0.04303841  1
  H  H27  1  0.15254018  0.29278683  0.02512774  1
  H  H28  1  0.27162775  0.15255195  0.10007813  1
  N  N29  1  0.11567036  0.08447472  0.10157443  1
  N  N30  1  0.31635642  0.10878813  0.09385517  1
  H  H31  1  0.34125842  0.46905612  0.15427712  1
  O  O32  1  0.10347352  0.47255619  0.10508499  1
  H  H33  1  0.26236707  0.45966106  0.24500490  1
  H  H34  1  0.25695567  0.42565885  0.01857561  1
  H  H35  1  0.12106710  0.46936414  0.07071854  1
  C  C36  1  0.24767075  0.48410050  0.04280979  1
  C  C37  1  0.42070489  0.02075779  0.09855722  1
  C  C38  1  0.11389980  0.00590834  0.07763086  1
  C  C39  1  0.39246283  0.00073536  0.05061722  1
  C  C40  1  0.11759692  0.26489175  0.24541391  1
  H  H41  1  0.05487526  0.18607060  0.00765315  1
  C  C42  1  0.14197016  0.09545245  0.39802643  1
  H  H43  1  0.07950465  0.10207899  0.40920744  1
  N  N44  1  0.33015047  0.01879664  0.44853002  1
  N  N45  1  0.23869639  0.21859213  0.42825339  1
  C  C46  1  0.11574157  0.09621477  0.27024229  1
  H  H47  1  0.08053749  0.37892786  0.46817376  1
  C  C48  1  0.01724573  0.37841140  0.45819734  1
  Cu  Cu49  1  0.43651296  0.23914472  0.47827018  1
  N  N50  1  0.14537624  0.22031389  0.32125865  1
  C  C51  1  0.18909484  0.18393680  0.39915999  1
  O  O52  1  0.41717089  0.25295829  0.30767255  1
  H  H53  1  0.11781110  0.37337908  0.34012866  1
  O  O54  1  0.11131740  0.38135440  0.30620250  1
  C  C55  1  0.12585494  0.12566123  0.31689835  1
  Cu  Cu56  1  0.23251880  0.46202663  0.41710025  1
  Cu  Cu57  1  0.28137972  0.16610678  0.47874411  1
  N  N58  1  0.27873807  0.31164581  0.40521357  1
  H  H59  1  0.29908951  0.33884893  0.29750512  1
  C  C60  1  0.19080889  0.24371616  0.35962480  1
  C  C61  1  0.28098951  0.38383949  0.32761275  1
  H  H62  1  0.23223239  0.42690721  0.31296582  1
  C  C63  1  0.25073348  0.31729142  0.36478365  1
  C  C64  1  0.12528307  0.29397531  0.29240980  1
  H  H65  1  0.48458999  0.38470185  0.38094259  1
  C  C66  1  0.43801720  0.22480806  0.34433919  1
  Cu  Cu67  1  0.41787983  0.08817771  0.43585442  1
  H  H68  1  0.25624056  0.03453215  0.35893430  1
  H  H69  1  0.33382886  0.43117232  0.33761960  1
  H  H70  1  0.37467633  0.21076423  0.35830534  1
  Cu  Cu71  1  0.35717879  0.37550033  0.43984080  1
  O  O72  1  0.12271615  0.06215716  0.34637392  1
  C  C73  1  0.46806375  0.45763775  0.37803192  1
  H  H74  1  0.16406179  0.03629715  0.41882057  1
  C  C75  1  0.40347745  0.48821393  0.39877650  1
  H  H76  1  0.07177551  0.03980881  0.49303080  1
  H  H77  1  0.46848724  0.38619133  0.70646762  1
  C  C78  1  0.21344317  0.34932741  0.66386069  1
  N  N79  1  0.01196443  0.32228175  0.60084833  1
  H  H80  1  0.39768435  0.41380167  0.63136894  1
  O  O81  1  0.06807477  0.07087823  0.69436865  1
  N  N82  1  0.34680696  0.35070799  0.50535136  1
  N  N83  1  0.34647047  0.37830748  0.62444718  1
  O  O84  1  0.15967855  0.34933348  0.63831095  1
  C  C85  1  0.03789452  0.21675338  0.54007241  1
  N  N86  1  0.28744378  0.26925490  0.52156256  1
  H  H87  1  0.24708165  0.19498603  0.62923046  1
  H  H88  1  0.25801150  0.41786008  0.52370034  1
  C  C89  1  0.23217949  0.19780143  0.59383739  1
  H  H90  1  0.46562736  0.08760982  0.66173087  1
  H  H91  1  0.24302007  0.12617160  0.57959826  1
  H  H92  1  0.16729954  0.21550896  0.59531376  1
  C  C93  1  0.28252477  0.27323866  0.56698613  1
  N  N94  1  0.46950955  0.13615334  0.56266218  1
  C  C95  1  0.37520835  0.38897381  0.54138370  1
  C  C96  1  0.34113104  0.36534823  0.70488173  1
  C  C97  1  0.20358581  0.34183243  0.71498755  1
  Cu  Cu98  1  0.04520077  0.43411925  0.57876188  1
  H  H99  1  0.07564838  0.31512601  0.72933607  1
  C  C100  1  0.30478478  0.08353884  0.68161055  1
  C  C101  1  0.30179281  0.35798121  0.66071334  1
  Cu  Cu102  1  0.38691930  0.07375250  0.53605831  1
  H  H103  1  0.29456030  0.15808584  0.68130770  1
  C  C104  1  0.33483187  0.34586828  0.58169256  1
  C  C105  1  0.27906749  0.35246010  0.73719694  1
  C  C106  1  0.41779028  0.37466501  0.72757202  1
  C  C107  1  0.43179145  0.46930704  0.54083070  1
  C  C108  1  0.28432851  0.02921592  0.72046430  1
  H  H109  1  0.36519508  0.09005690  0.62007833  1
  O  O110  1  0.49891310  0.38175540  0.61688284  1
  C  C111  1  0.34353132  0.03994019  0.64634852  1
  C  C112  1  0.03778813  0.03906109  0.66071607  1
  H  H113  1  0.17141978  0.01378610  0.56992388  1
  H  H114  1  0.10056582  0.23084939  0.53377096  1
  N  N115  1  0.30567776  0.01400122  0.50680099  1
  H  H116  1  0.47903901  0.33240803  0.59923703  1
  H  H117  1  0.02455109  0.14222943  0.53164176  1
  C  C118  1  0.13638212  0.32722782  0.74188352  1
  N  N119  1  0.22418555  0.47459022  0.51944845  1
  C  C120  1  0.00727335  0.23648246  0.58794963  1
  H  H121  1  0.18765715  0.46362271  0.61375247  1
  H  H122  1  0.01201045  0.26490145  0.51514509  1
  H  H123  1  0.01385761  0.18144539  0.73947493  1
  C  C124  1  0.25372702  0.17906231  0.93068135  1
  H  H125  1  0.40510744  0.12931593  0.93858067  1
  C  C126  1  0.36431876  0.32025475  0.85229204  1
  O  O127  1  0.03684245  0.09077658  0.96184117  1
  Cu  Cu128  1  0.10385555  0.45989036  0.84446587  1
  N  N129  1  0.23267945  0.01432807  0.79398308  1
  C  C130  1  0.21565123  0.31993068  0.86433289  1
  C  C131  1  0.39708999  0.38139499  0.95584750  1
  C  C132  1  0.34936103  0.29159310  0.95796492  1
  N  N133  1  0.29339939  0.30821559  0.87740377  1
  H  H134  1  0.23134363  0.08731259  0.87662337  1
  H  H135  1  0.16813621  0.06751465  0.92297022  1
  O  O136  1  0.43016375  0.30813967  0.86571996  1
  C  C137  1  0.42372097  0.36168546  0.77409293  1
  C  C138  1  0.35851543  0.34831074  0.80437182  1
  H  H139  1  0.45775536  0.22304899  0.91169565  1
  H  H140  1  0.21855231  0.17871812  0.79009017  1
  C  C141  1  0.20833477  0.33662732  0.81378177  1
  H  H142  1  0.03518033  0.23140441  0.94460764  1
  N  N143  1  0.33910270  0.23052983  0.99077435  1
  N  N144  1  0.27092221  0.15347873  0.97153576  1
  Cu  Cu145  1  0.21250768  0.47016270  0.92439625  1
  C  C146  1  0.29845461  0.26331006  0.92048640  1
  O  O147  1  0.16139184  0.32198244  0.89018529  1
  H  H148  1  0.21812978  0.28969233  0.98841087  1
  C  C149  1  0.13863318  0.32672612  0.78923034  1
  H  H150  1  0.40492499  0.40306627  0.91839314  1
  C  C151  1  0.27981099  0.35339495  0.78776642  1
  H  H152  1  0.45793236  0.38042938  0.97160631  1
  C  C153  1  0.46461353  0.15054400  0.92824426  1
  C  C154  1  0.19576725  0.12088133  0.90215767  1
  N  N155  1  0.02143482  0.41872706  0.89198573  1
  H  H156  1  0.08572918  0.31538321  0.81103956  1
  H  H157  1  0.15362042  0.16511791  0.88259537  1
  Cu  Cu158  1  0.08347225  0.41717088  0.94799709  1
  H  H159  1  0.48354993  0.36119217  0.79051511  1
  O  O160  1  0.37057311  0.48082407  0.96683566  1
  C  C161  1  0.04239848  0.17196201  0.97115869  1
  O  O162  1  0.17213293  0.32486286  0.99651154  1
  O  O163  1  0.21971551  0.16060393  0.75512901  1
  C  C164  1  0.24259925  0.07094367  0.76052180  1
  H  H165  1  0.49578671  0.41577958  0.90581695  1
  H  H166  1  0.48759404  0.94637366  0.00835632  1
  C  C167  1  0.01304942  0.72738012  0.00599468  1
  C  C168  1  0.17873422  0.58030328  0.15546609  1
  C  C169  1  0.47476702  0.94041062  0.16203984  1
  C  C170  1  0.25614718  0.85469693  0.18728425  1
  N  N171  1  0.48332301  0.97343622  0.11727662  1
  Cu  Cu172  1  0.15099196  0.79055126  0.01059249  1
  H  H173  1  0.40744158  0.86575710  0.01893307  1
  H  H174  1  0.27824507  0.92560114  0.19184880  1
  H  H175  1  0.19219335  0.88939619  0.12711924  1
  C  C176  1  0.28120899  0.78448340  0.21971477  1
  C  C177  1  0.12806026  0.60935818  0.03731649  1
  O  O178  1  0.11950049  0.78755768  0.07115750  1
  C  C179  1  0.20528271  0.67074822  0.16992669  1
  H  H180  1  0.42834918  0.78351624  0.06623381  1
  C  C181  1  0.32334705  0.73253033  0.03080951  1
  C  C182  1  0.18120674  0.74214565  0.13969356  1
  C  C183  1  0.37640486  0.73967353  0.07290040  1
  H  H184  1  0.34494114  0.76781079  0.10235107  1
  N  N185  1  0.12746088  0.63109193  0.08450814  1
  H  H186  1  0.24973226  0.79695479  0.06966924  1
  C  C187  1  0.25362121  0.68832915  0.21050726  1
  C  C188  1  0.20966503  0.83399172  0.15081565  1
  H  H189  1  0.46267895  0.81838351  0.23224429  1
  C  C190  1  0.18005167  0.54017210  0.02106682  1
  C  C191  1  0.13378198  0.55458201  0.11368807  1
  C  C192  1  0.13853802  0.96957460  0.03589852  1
  H  H193  1  0.10997049  0.89717013  0.20968810  1
  C  C194  1  0.13618130  0.72376788  0.09771598  1
  N  N195  1  0.25492722  0.77287753  0.03797635  1
  C  C196  1  0.48198470  0.68818790  0.19697620  1
  C  C197  1  0.26953565  0.61346501  0.24043821  1
  H  H198  1  0.40585832  0.67225811  0.08162750  1
  O  O199  1  0.46255052  0.97562053  0.19834798  1
  C  C200  1  0.11066747  0.97123745  0.21337281  1
  C  C201  1  0.24611615  0.52195559  0.22610786  1
  H  H202  1  0.30493876  0.52287617  0.04125138  1
  H  H203  1  0.47363845  0.64809101  0.22846544  1
  C  C204  1  0.47269008  0.78410713  0.19930171  1
  C  C205  1  0.49271075  0.83672064  0.16214226  1
  C  C206  1  0.07885057  0.65467347  0.00156386  1
  N  N207  1  0.16139696  0.94010493  0.00027960  1
  C  C208  1  0.42223213  0.94088170  0.01190113  1
  C  C209  1  0.19971972  0.50753956  0.18674964  1
  H  H210  1  0.06155381  0.66841651  0.43800090  1
  C  C211  1  0.03728307  0.98881111  0.47267452  1
  O  O212  1  0.17566617  0.70710702  0.36252410  1
  H  H213  1  0.22410379  0.74206517  0.35329285  1
  C  C214  1  0.22088761  0.94708794  0.46290055  1
  C  C215  1  0.47094396  0.77496629  0.30232366  1
  C  C216  1  0.12777077  0.56463805  0.47645042  1
  N  N217  1  0.33278521  0.77270169  0.38070520  1
  C  C218  1  0.07426410  0.91039760  0.44880834  1
  H  H219  1  0.22487219  0.90965794  0.36677978  1
  N  N220  1  0.33409561  0.72514470  0.28250075  1
  H  H221  1  0.34594272  0.95857160  0.31489814  1
  C  C222  1  0.35411054  0.82676189  0.35171167  1
  Cu  Cu223  1  0.29623256  0.78480105  0.44107646  1
  N  N224  1  0.33857437  0.51630088  0.41927359  1
  C  C225  1  0.31873576  0.63539828  0.28156232  1
  C  C226  1  0.27059296  0.96517464  0.37551602  1
  Cu  Cu227  1  0.34840852  0.61197316  0.46512195  1
  C  C228  1  0.02656885  0.84988394  0.42053738  1
  C  C229  1  0.34804696  0.93409610  0.35103210  1
  C  C230  1  0.14513750  0.76874696  0.39299347  1
  C  C231  1  0.37746124  0.79052181  0.30183746  1
  C  C232  1  0.07940586  0.59212654  0.43408465  1
  Cu  Cu233  1  0.32205809  0.63942286  0.38670634  1
  H  H234  1  0.11493146  0.59286115  0.40277265  1
  H  H235  1  0.43931232  0.63452845  0.30145223  1
  N  N236  1  0.18525954  0.80601278  0.42837344  1
  O  O237  1  0.34077898  0.57635748  0.30988089  1
  N  N238  1  0.48563724  0.67930009  0.30440721  1
  H  H239  1  0.40256423  0.96391868  0.36895006  1
  C  C240  1  0.06105795  0.78411636  0.39023514  1
  C  C241  1  0.27410199  0.97869945  0.42736898  1
  C  C242  1  0.15681802  0.88540717  0.44916295  1
  H  H243  1  0.10805212  0.94210273  0.28458193  1
  C  C244  1  0.32717832  0.79935212  0.25772273  1
  H  H245  1  0.02327525  0.55429343  0.42889310  1
  H  H246  1  0.04426655  0.69310668  0.33351484  1
  N  N247  1  0.18518117  0.50912062  0.46760797  1
  C  C248  1  0.01064473  0.73864979  0.35674735  1
  C  C249  1  0.11334855  0.99886302  0.25780421  1
  C  C250  1  0.48060373  0.80525365  0.54104821  1
  H  H251  1  0.03872453  0.62533829  0.66553058  1
  H  H252  1  0.23782215  0.91947927  0.57759855  1
  C  C253  1  0.30013106  0.93136325  0.71979660  1
  C  C254  1  0.02782718  0.80482228  0.59302858  1
  C  C255  1  0.11987418  0.66637558  0.59665267  1
  C  C256  1  0.20740212  0.53244893  0.59797057  1
  O  O257  1  0.16995759  0.62110892  0.62101657  1
  H  H258  1  0.14408226  0.88994325  0.55348014  1
  C  C259  1  0.19489374  0.53467705  0.54785543  1
  C  C260  1  0.13249523  0.58637075  0.52503116  1
  C  C261  1  0.04955303  0.93925982  0.64799490  1
  O  O262  1  0.38000783  0.64932949  0.62436846  1
  C  C263  1  0.24665767  0.74601398  0.54116796  1
  C  C264  1  0.02085926  0.68498217  0.53514598  1
  C  C265  1  0.10326815  0.87725813  0.66859068  1
  C  C266  1  0.12849203  0.79265438  0.65216654  1
  H  H267  1  0.39800905  0.65149104  0.59269559  1
  C  C268  1  0.33536614  0.75645459  0.53288679  1
  H  H269  1  0.22469057  0.74453134  0.57818520  1
  N  N270  1  0.37722067  0.80977428  0.60626421  1
  C  C271  1  0.09282153  0.75361538  0.61245328  1
  C  C272  1  0.36971852  0.73850563  0.63506352  1
  C  C273  1  0.33439388  0.78140427  0.67591240  1
  H  H274  1  0.16561831  0.74836765  0.67351937  1
  C  C275  1  0.33292479  0.88140229  0.68079185  1
  H  H276  1  0.29700052  0.64986985  0.71133122  1
  C  C277  1  0.37132982  0.89820734  0.60082258  1
  C  C278  1  0.27380712  0.77271924  0.74966776  1
  C  C279  1  0.35034315  0.94125385  0.64279938  1
  N  N280  1  0.09130816  0.64946997  0.55249641  1
  C  C281  1  0.39021859  0.83014727  0.56144313  1
  C  C282  1  0.30562171  0.72540471  0.71220127  1
  H  H283  1  0.22336930  0.68248866  0.52440079  1
  C  C284  1  0.24028352  0.96963926  0.51048079  1
  C  C285  1  0.19300189  0.94525085  0.55578178  1
  H  H286  1  0.13318146  0.89824831  0.70158675  1
  H  H287  1  0.21235303  0.80202125  0.52262819  1
  H  H288  1  0.27163721  0.53444937  0.60590740  1
  H  H289  1  0.43462275  0.52264413  0.56907916  1
  N  N290  1  0.37083095  0.71176154  0.50626991  1
  N  N291  1  0.47379800  0.75068340  0.51165135  1
  C  C292  1  0.00953169  0.89899486  0.60915743  1
  O  O293  1  0.46922741  0.51336375  0.51212134  1
  C  C294  1  0.21693711  0.88677421  0.84161465  1
  C  C295  1  0.13757798  0.88486208  0.86003385  1
  N  N296  1  0.14185494  0.88963672  0.90431557  1
  C  C297  1  0.05347222  0.88137740  0.83894391  1
  C  C298  1  0.27779162  0.66137958  0.86613395  1
  C  C299  1  0.49063755  0.73935153  0.93615544  1
  Cu  Cu300  1  0.26398378  0.89240196  0.97678944  1
  N  N301  1  0.17036723  0.53345624  0.97664199  1
  C  C302  1  0.41019421  0.72445360  0.95268698  1
  Cu  Cu303  1  0.06474294  0.60663970  0.90363597  1
  H  H304  1  0.33802465  0.63795462  0.87237082  1
  H  H305  1  0.45670403  0.93490404  0.88028837  1
  N  N306  1  0.03457733  0.54205749  0.81867355  1
  C  C307  1  0.34608036  0.70965592  0.98455061  1
  C  C308  1  0.35877781  0.90224993  0.87175540  1
  N  N309  1  0.23878158  0.88756601  0.91643429  1
  N  N310  1  0.38546867  0.64025466  0.96493879  1
  H  H311  1  0.25061795  0.72850383  0.77703448  1
  H  H312  1  0.39508764  0.96331641  0.97773663  1
  C  C313  1  0.22177143  0.60576485  0.87223775  1
  C  C314  1  0.27411002  0.89031781  0.87776748  1
  C  C315  1  0.48458852  0.56446502  0.93232982  1
  H  H316  1  0.26872333  0.73533461  0.85422257  1
  O  O317  1  0.40412002  0.92400469  0.90239830  1
  H  H318  1  0.04323264  0.82747561  0.81230622  1
  N  N319  1  0.09726679  0.61023874  0.96442317  1
  Cu  Cu320  1  0.08264146  0.90334734  0.95535683  1
  N  N321  1  0.16500680  0.55045032  0.87852784  1
  C  C322  1  0.23665879  0.92209232  0.79498258  1
  C  C323  1  0.40956911  0.55401622  0.95625514  1
  H  H324  1  0.03768420  0.94760527  0.81951010  1
  H  H325  1  0.37778997  0.89255754  0.83459284  1
  C  C326  1  0.27141702  0.87281265  0.75627894  1
  H  H327  1  0.01025484  0.87067314  0.86803367  1
  H  H328  1  0.74041876  0.07473355  0.02611379  1
  H  H329  1  0.80756650  0.45254394  0.00934152  1
  C  C330  1  0.94605756  0.30938886  0.06502598  1
  O  O331  1  0.91828608  0.15673753  0.13339507  1
  H  H332  1  0.93109015  0.24928653  0.21244520  1
  C  C333  1  0.56312275  0.34770077  0.15229353  1
  H  H334  1  0.90902860  0.24797933  0.06791797  1
  H  H335  1  0.64920980  0.31351235  0.20597996  1
  H  H336  1  0.97047387  0.03716863  0.11304651  1
  C  C337  1  0.92558094  0.07525629  0.09023423  1
  N  N338  1  0.57652758  0.18158984  0.03918990  1
  C  C339  1  0.73029692  0.04037121  0.14144757  1
  Cu  Cu340  1  0.51355948  0.32029907  0.06118199  1
  C  C341  1  0.85021305  0.14478813  0.15157847  1
  C  C342  1  0.63091025  0.15747157  0.00821664  1
  Cu  Cu343  1  0.57032198  0.17662196  0.10209845  1
  N  N344  1  0.79573119  0.08761946  0.13381060  1
  C  C345  1  0.78599263  0.02025869  0.10372446  1
  N  N346  1  0.55582767  0.29368417  0.11712470  1
  C  C347  1  0.71924382  0.13934552  0.01066674  1
  O  O348  1  0.56263414  0.35799145  0.23977048  1
  H  H349  1  0.75004145  0.19815657  0.02749943  1
  H  H350  1  0.56935133  0.23383037  0.19931617  1
  H  H351  1  0.54097571  0.04858782  0.05015242  1
  C  C352  1  0.74172985  0.15095501  0.20845379  1
  C  C353  1  0.62921271  0.03994735  0.20323251  1
  C  C354  1  0.54130510  0.44500180  0.14203129  1
  C  C355  1  0.70113321  0.07875677  0.18287331  1
  O  O356  1  0.55935938  0.48612153  0.03549220  1
  C  C357  1  0.81753113  0.18491784  0.19268561  1
  C  C358  1  0.58509400  0.30612691  0.19720050  1
  C  C359  1  0.85686563  0.02124848  0.07625488  1
  C  C360  1  0.86904204  0.24004478  0.22128934  1
  C  C361  1  0.96539917  0.34987866  0.02580714  1
  H  H362  1  0.95915873  0.10687476  0.06154750  1
  C  C363  1  0.59340687  0.07298393  0.24265977  1
  O  O364  1  0.58558513  0.00079762  0.05932103  1
  H  H365  1  0.94785362  0.46830893  0.23716224  1
  H  H366  1  0.98103739  0.32757705  0.09591972  1
  O  O367  1  0.99637729  0.39405866  0.40020429  1
  C  C368  1  0.60865985  0.19747758  0.30476888  1
  C  C369  1  0.60147390  0.22677064  0.35504253  1
  H  H370  1  0.55904620  0.48103668  0.28013022  1
  H  H371  1  0.59922516  0.09870202  0.45587383  1
  C  C372  1  0.90622160  0.47436133  0.35218790  1
  C  C373  1  0.93659504  0.44294247  0.39661122  1
  N  N374  1  0.65566319  0.25305019  0.32346324  1
  C  C375  1  0.72605842  0.29450753  0.31636708  1
  H  H376  1  0.76926815  0.21434140  0.38939829  1
  H  H377  1  0.59154676  0.32002391  0.26102907  1
  O  O378  1  0.76121716  0.35906414  0.34081021  1
  N  N379  1  0.59365841  0.13480710  0.42550246  1
  C  C380  1  0.91501548  0.48909671  0.26854025  1
  H  H381  1  0.99495731  0.30374187  0.44717702  1
  C  C382  1  0.64829256  0.17298637  0.39899537  1
  C  C383  1  0.83729537  0.27545929  0.26108287  1
  H  H384  1  0.75174354  0.11711702  0.43043624  1
  C  C385  1  0.63761571  0.14589711  0.26592321  1
  H  H386  1  0.72324367  0.35947398  0.36982658  1
  C  C387  1  0.72667818  0.17082968  0.40802030  1
  C  C388  1  0.93947727  0.45048532  0.31051733  1
  H  H389  1  0.87613811  0.31906244  0.28223865  1
  C  C390  1  0.96532628  0.42889577  0.48913269  1
  C  C391  1  0.75946548  0.25428145  0.27530275  1
  H  H392  1  0.53775745  0.04793013  0.37591799  1
  O  O393  1  0.77820805  0.00258823  0.47698181  1
  H  H394  1  0.98771628  0.40720895  0.31065878  1
  C  C395  1  0.51152539  0.20728492  0.36942658  1
  H  H396  1  0.93156001  0.05390224  0.49105700  1
  N  N397  1  0.50032786  0.15770696  0.40590208  1
  C  C398  1  0.88815596  0.47743260  0.47543227  1
  N  N399  1  0.88693243  0.47929733  0.42906868  1
  H  H400  1  0.53544182  0.05457336  0.25470954  1
  C  C401  1  0.71073128  0.18688482  0.25046812  1
  C  C402  1  0.81313641  0.45517135  0.67989294  1
  C  C403  1  0.56083830  0.25966125  0.54787422  1
  C  C404  1  0.72582906  0.34065700  0.65049067  1
  O  O405  1  0.59173490  0.10645881  0.67299369  1
  C  C406  1  0.82386894  0.40139779  0.71986567  1
  H  H407  1  0.66403696  0.31877413  0.51361446  1
  H  H408  1  0.55419452  0.36535550  0.62175160  1
  H  H409  1  0.89206775  0.15779777  0.58366319  1
  C  C410  1  0.76915378  0.42311826  0.64422409  1
  N  N411  1  0.99416918  0.08457276  0.62745221  1
  C  C412  1  0.96176474  0.20841965  0.71882101  1
  C  C413  1  0.78652709  0.31248610  0.72897009  1
  C  C414  1  0.51455469  0.14109148  0.59833826  1
  H  H415  1  0.93616164  0.26308245  0.74098492  1
  C  C416  1  0.63310325  0.17625714  0.66376572  1
  O  O417  1  0.67286373  0.35944322  0.57795117  1
  C  C418  1  0.67529353  0.31169353  0.61502488  1
  C  C419  1  0.51748409  0.07825602  0.63827510  1
  C  C420  1  0.68638082  0.20469929  0.69989338  1
  C  C421  1  0.73009897  0.28612210  0.69196917  1
  N  N422  1  0.62704622  0.23548308  0.62613424  1
  C  C423  1  0.61438941  0.33885416  0.53771980  1
  O  O424  1  0.87590819  0.08909480  0.58021532  1
  H  H425  1  0.63637076  0.05611301  0.53080503  1
  C  C426  1  0.99363568  0.18287284  0.62982973  1
  H  H427  1  0.58363594  0.40028944  0.52585894  1
  C  C428  1  0.57357865  0.21286559  0.59100655  1
  H  H429  1  0.91248382  0.15570947  0.71654486  1
  C  C430  1  0.93692571  0.04781600  0.59839337  1
  C  C431  1  0.98079416  0.24197739  0.66969421  1
  C  C432  1  0.69713726  0.15351639  0.74037858  1
  N  N433  1  0.99167126  0.32484639  0.65716547  1
  H  H434  1  0.54689341  0.08100299  0.52249609  1
  H  H435  1  0.76516667  0.45845137  0.61169452  1
  N  N436  1  0.97874637  0.45011553  0.53086171  1
  O  O437  1  0.58855503  0.03919179  0.51179686  1
  H  H438  1  0.65782079  0.09032481  0.74658644  1
  Cu  Cu439  1  0.99439387  0.45140408  0.67021796  1
  N  N440  1  0.50076848  0.22297703  0.52918254  1
  H  H441  1  0.51776521  0.00372545  0.62971018  1
  N  N442  1  0.62949923  0.10144163  0.92440752  1
  O  O443  1  0.88510393  0.22572421  0.83296640  1
  N  N444  1  0.88569558  0.36571401  0.79186582  1
  H  H445  1  0.77173944  0.12762855  0.79974665  1
  C  C446  1  0.51215256  0.15678834  0.97122703  1
  H  H447  1  0.96451230  0.19554560  0.87628246  1
  O  O448  1  0.75596381  0.09846276  0.96263869  1
  C  C449  1  0.57863558  0.08111482  0.88739949  1
  C  C450  1  0.52268932  0.48712188  0.90999309  1
  C  C451  1  0.75539020  0.17455595  0.77156438  1
  C  C452  1  0.98723937  0.34135498  0.87821845  1
  N  N453  1  0.98226131  0.38899349  0.98712290  1
  C  C454  1  0.75031206  0.05661671  0.88819043  1
  H  H455  1  0.93409361  0.38363619  0.96508282  1
  C  C456  1  0.59632101  0.14216280  0.96406825  1
  C  C457  1  0.59942776  0.49117998  0.89226105  1
  C  C458  1  0.95561107  0.26873961  0.86568283  1
  C  C459  1  0.86150755  0.28178191  0.80180189  1
  H  H460  1  0.62114811  0.42183893  0.87846802  1
  C  C461  1  0.87510871  0.42895822  0.75741029  1
  C  C462  1  0.92447712  0.44352189  0.79552508  1
  C  C463  1  0.80342344  0.25471234  0.76662447  1
  O  O464  1  0.50611539  0.09676665  0.88763584  1
  H  H465  1  0.86971736  0.06336145  0.91471772  1
  C  C466  1  0.83366768  0.04260216  0.88607450  1
  C  C467  1  0.70945905  0.08601036  0.92899004  1
  C  C468  1  0.62027593  0.03530072  0.85124041  1
  H  H469  1  0.51207206  0.02332825  0.81019549  1
  C  C470  1  0.57797106  0.01273729  0.81057179  1
  C  C471  1  0.70509751  0.02121431  0.84960308  1
  H  H472  1  0.98285590  0.47429491  0.89231983  1
  C  C473  1  0.78800227  0.49771452  0.97917019  1
  C  C474  1  0.87100656  0.00094662  0.84895584  1
  O  O475  1  0.71885099  0.48131083  0.98184447  1
  H  H476  1  0.73424735  0.93922029  0.00280576  1
  N  N477  1  0.53961669  0.51348376  0.11212748  1
  O  O478  1  0.87726011  0.77565585  0.08925659  1
  H  H479  1  0.83111198  0.75516779  0.10795008  1
  C  C480  1  0.53958303  0.84548763  0.08166881  1
  C  C481  1  0.83327103  0.59405984  0.21994509  1
  C  C482  1  0.56268050  0.80246029  0.03912446  1
  C  C483  1  0.54498501  0.64696246  0.07393046  1
  C  C484  1  0.75145489  0.79845344  0.16995980  1
  C  C485  1  0.78172335  0.81973302  0.00802109  1
  H  H486  1  0.75367563  0.89774583  0.22754579  1
  C  C487  1  0.56290854  0.70399070  0.03548646  1
  C  C488  1  0.71994162  0.64571527  0.14188031  1
  C  C489  1  0.69769618  0.54152407  0.13749166  1
  C  C490  1  0.52264145  0.53845197  0.15506782  1
  H  H491  1  0.72997246  0.86797175  0.10565125  1
  N  N492  1  0.70996589  0.70168508  0.10734329  1
  O  O493  1  0.86883793  0.57305030  0.18584081  1
  C  C494  1  0.54113123  0.94673990  0.08508950  1
  H  H495  1  0.57361930  0.84492119  0.01026857  1
  C  C496  1  0.79044603  0.87545670  0.19763764  1
  H  H497  1  0.86177676  0.83774618  0.07623667  1
  H  H498  1  0.84395661  0.84906049  0.21503599  1
  C  C499  1  0.74629241  0.70003327  0.18111055  1
  C  C500  1  0.51617695  0.78915704  0.12015003  1
  H  H501  1  0.65474777  0.51680876  0.16245502  1
  N  N502  1  0.72761188  0.81516683  0.12904239  1
  H  H503  1  0.57715435  0.67591081  0.00163075  1
  N  N504  1  0.76982960  0.65562999  0.22268930  1
  H  H505  1  0.69250488  0.69467712  0.07458935  1
  H  H506  1  0.80948414  0.93232101  0.17682893  1
  H  H507  1  0.66915929  0.52851401  0.10391749  1
  N  N508  1  0.85902412  0.96395772  0.03971098  1
  N  N509  1  0.77547422  0.90390461  0.02410516  1
  C  C510  1  0.52697832  0.69099941  0.11728875  1
  C  C511  1  0.54625864  0.54383771  0.06948992  1
  H  H512  1  0.65337656  0.74088437  0.22509459  1
  H  H513  1  0.75432522  0.50137593  0.14457382  1
  H  H514  1  0.90465290  0.94901243  0.01900217  1
  H  H515  1  0.98990760  0.75363543  0.04213971  1
  C  C516  1  0.50787752  0.63790680  0.15889804  1
  H  H517  1  0.57156724  0.53267820  0.01053287  1
  H  H518  1  0.59874085  0.98684712  0.18373799  1
  H  H519  1  0.85330892  0.69968767  0.00941781  1
  C  C520  1  0.64565703  0.82059440  0.41173371  1
  C  C521  1  0.72864574  0.83849797  0.40586217  1
  C  C522  1  0.81165455  0.57654972  0.30636203  1
  H  H523  1  0.70320156  0.64934975  0.41785478  1
  H  H524  1  0.59320704  0.81628727  0.30952755  1
  C  C525  1  0.89345145  0.80640272  0.38938226  1
  C  C526  1  0.94126949  0.86585369  0.41682683  1
  O  O527  1  0.76686006  0.59398319  0.47672839  1
  C  C528  1  0.80932445  0.81506952  0.39408219  1
  H  H529  1  0.89315171  0.68599625  0.34239675  1
  C  C530  1  0.79840706  0.56629622  0.39099618  1
  N  N531  1  0.59106514  0.84769041  0.43312347  1
  C  C532  1  0.85347623  0.55274135  0.26477349  1
  H  H533  1  0.52564483  0.77171294  0.38594678  1
  C  C534  1  0.71293094  0.66633015  0.34531014  1
  H  H535  1  0.66051453  0.71059965  0.34719369  1
  C  C536  1  0.73437783  0.62620192  0.38634205  1
  C  C537  1  0.82581668  0.52968123  0.43343549  1
  H  H538  1  0.54013281  0.74026957  0.44812354  1
  C  C539  1  0.74846978  0.64252637  0.30333168  1
  C  C540  1  0.72914486  0.68655792  0.26015347  1
  C  C541  1  0.82104546  0.95157075  0.44857632  1
  C  C542  1  0.92931063  0.73643597  0.35948059  1
  C  C543  1  0.52967324  0.83753565  0.30520974  1
  N  N544  1  0.78935981  0.88374201  0.42255046  1
  C  C545  1  0.90668344  0.93831973  0.44449819  1
  C  C546  1  0.56631921  0.76180663  0.41526232  1
  C  C547  1  0.84294612  0.53926743  0.34877247  1
  H  H548  1  0.55073447  0.95927840  0.39552443  1
  H  H549  1  0.53534446  0.64055491  0.29849533  1
  O  O550  1  0.51586371  0.98594632  0.37269691  1
  O  O551  1  0.58044016  0.52735955  0.30342931  1
  C  C552  1  0.95630177  0.99626991  0.47194214  1
  H  H553  1  0.51878834  0.91665640  0.30531692  1
  O  O554  1  0.67438017  0.75225020  0.25893955  1
  H  H555  1  0.63787603  0.53907367  0.29681778  1
  O  O556  1  0.98484832  0.64959938  0.49745790  1
  H  H557  1  0.50652215  0.50131244  0.35392346  1
  H  H558  1  0.72596612  0.96408563  0.47573101  1
  C  C559  1  0.79650069  0.58983236  0.51450411  1
  C  C560  1  0.98423672  0.76345874  0.55560794  1
  N  N561  1  0.90606389  0.52068793  0.55300361  1
  H  H562  1  0.86214168  0.94616666  0.53677884  1
  C  C563  1  0.91885109  0.81436230  0.53852908  1
  C  C564  1  0.73248516  0.89131447  0.73833275  1
  H  H565  1  0.57552188  0.93973433  0.74757755  1
  Cu  Cu566  1  0.94258078  0.56470545  0.61341482  1
  C  C567  1  0.55763662  0.85230910  0.55787809  1
  C  C568  1  0.96917121  0.63268404  0.71447366  1
  N  N569  1  0.76888422  0.78108545  0.63075163  1
  C  C570  1  0.90480277  0.90366332  0.55271267  1
  O  O571  1  0.84311761  0.64513379  0.61642875  1
  C  C572  1  0.94821784  0.95137841  0.58668940  1
  H  H573  1  0.88371124  0.78135390  0.60598640  1
  C  C574  1  0.79995763  0.79595863  0.66535640  1
  C  C575  1  0.78713489  0.84019297  0.70927491  1
  C  C576  1  0.84210388  0.73177021  0.62199505  1
  C  C577  1  0.86381830  0.53248417  0.52165667  1
  H  H578  1  0.56222898  0.84766075  0.59641241  1
  H  H579  1  0.56572488  0.92952475  0.54496525  1
  H  H580  1  0.76671636  0.62128987  0.54289953  1
  H  H581  1  0.61030096  0.81373416  0.54604564  1
  H  H582  1  0.98049439  0.58311688  0.50865460  1
  H  H583  1  0.84064380  0.52456255  0.67801153  1
  N  N584  1  0.80594000  0.87905529  0.74779639  1
  N  N585  1  0.99196419  0.58591793  0.67828310  1
  H  H586  1  0.95181440  0.76079727  0.74914093  1
  H  H587  1  0.88613070  0.78716823  0.51042571  1
  H  H588  1  0.76663795  0.70088268  0.96707934  1
  C  C589  1  0.81436210  0.59686362  0.89796815  1
  O  O590  1  0.77745213  0.83219468  0.89733640  1
  H  H591  1  0.82003084  0.81796136  0.92366704  1
  C  C592  1  0.73655927  0.75690352  0.89984318  1
  C  C593  1  0.86531308  0.89784195  0.77871499  1
  N  N594  1  0.91371810  0.54622436  0.95257259  1
  H  H595  1  0.86186742  0.73511938  0.82656079  1
  C  C596  1  0.91443826  0.62552674  0.79159513  1
  C  C597  1  0.83878328  0.54503291  0.94625758  1
  H  H598  1  0.85430924  0.60100794  0.78261387  1
  C  C599  1  0.69446178  0.94248103  0.77458020  1
  C  C600  1  0.60525936  0.66173950  0.90891596  1
  C  C601  1  0.96367778  0.53568892  0.80361579  1
  H  H602  1  0.65063471  0.88766772  0.93076522  1
  C  C603  1  0.64938706  0.74559375  0.90703408  1
  C  C604  1  0.82574751  0.95747988  0.81403615  1
  C  C605  1  0.72644932  0.59020830  0.88429964  1
  C  C606  1  0.89581752  0.63729110  0.88047885  1
  O  O607  1  0.98275721  0.78003096  0.97948984  1
  N  N608  1  0.95027810  0.60679195  0.90457114  1
  N  N609  1  0.75698334  0.66697444  0.89383970  1
  C  C610  1  0.91121162  0.68960525  0.83665471  1
  C  C611  1  0.61362397  0.82653592  0.92629979  1
  C  C612  1  0.64515865  0.57588348  0.89298628  1
  C  C613  1  0.52760791  0.65178384  0.92643450  1
  Cu  Cu614  1  0.99256458  0.52124096  0.99453395  1
  C  C615  1  0.74419811  0.97666723  0.81191208  1
  C  C616  1  0.61376114  0.96497287  0.77432641  1
  H  H617  1  0.96584189  0.73540043  0.83665027  1
  H  H618  1  0.93609231  0.99929818  0.84878988  1
  H  H619  1  0.50519848  0.89027816  0.94692574  1
  O  O620  1  0.93373813  0.88601565  0.77517132  1
  C  C621  1  0.53430732  0.82713277  0.93810185  1
  C  C622  1  0.80154600  0.73446448  0.99388315  1
  C  C623  1  0.94715097  0.68351244  0.75229964  1
