# generated using pymatgen
data_Cu3H16C36(NO2)4
_symmetry_space_group_name_H-M   'P 1'
_cell_length_a   11.34660325
_cell_length_b   21.69639939
_cell_length_c   12.45465967
_cell_angle_alpha   90.00000000
_cell_angle_beta   90.00000000
_cell_angle_gamma   90.00000000
_symmetry_Int_Tables_number   1
_chemical_formula_structural   Cu3H16C36(NO2)4
_chemical_formula_sum   'Cu12 H64 C144 N16 O32'
_cell_volume   3066.09354518
_cell_formula_units_Z   4
loop_
 _symmetry_equiv_pos_site_id
 _symmetry_equiv_pos_as_xyz
  1  'x, y, z'
loop_
 _atom_site_type_symbol
 _atom_site_label
 _atom_site_symmetry_multiplicity
 _atom_site_fract_x
 _atom_site_fract_y
 _atom_site_fract_z
 _atom_site_occupancy
  C  C0  1  0.37529873  0.20280267  0.31204767  1
  H  H1  1  0.23277040  0.04279168  0.43676418  1
  C  C2  1  0.40858593  0.03937771  0.14452821  1
  C  C3  1  0.20689792  0.08419601  0.48185245  1
  H  H4  1  0.15809048  0.22769007  0.04805898  1
  C  C5  1  0.24865006  0.14270197  0.44922096  1
  N  N6  1  0.34509827  0.03583116  0.31736138  1
  C  C7  1  0.32809239  0.14608510  0.35946717  1
  C  C8  1  0.35941969  0.09499002  0.29067654  1
  H  H9  1  0.41864056  0.13767354  0.13251191  1
  C  C10  1  0.39945877  0.09735542  0.17794693  1
  O  O11  1  0.17325886  0.10416290  0.06196986  1
  H  H12  1  0.06692327  0.05763826  0.20228004  1
  H  H13  1  0.43134179  0.02673033  0.06214110  1
  H  H14  1  0.00198178  0.21575791  0.44556489  1
  H  H15  1  0.23515186  0.24354725  0.47791316  1
  C  C16  1  0.47142018  0.21514382  0.23634614  1
  C  C17  1  0.09176474  0.10223889  0.00402140  1
  H  H18  1  0.05059566  0.12351934  0.69862810  1
  O  O19  1  0.09014594  0.12756129  0.90595106  1
  C  C20  1  0.14860080  0.18771244  0.59700735  1
  C  C21  1  0.35424480  0.05766285  0.72871728  1
  C  C22  1  0.13715934  0.07685693  0.57163943  1
  O  O23  1  0.31417996  0.15146881  0.83996984  1
  C  C24  1  0.36006056  0.12654166  0.75104614  1
  C  C25  1  0.11263854  0.13073326  0.63123753  1
  Cu  Cu26  1  0.17549823  0.18622739  0.83444501  1
  O  O27  1  0.06381630  0.23087745  0.75806056  1
  O  O28  1  0.40636357  0.15651886  0.68482784  1
  H  H29  1  0.26700618  0.04085849  0.88168291  1
  C  C30  1  0.30439261  0.02220905  0.81001790  1
  C  C31  1  0.10901200  0.24278090  0.66435103  1
  C  C32  1  0.40305755  0.03006929  0.63853876  1
  H  H33  1  0.44879822  0.05962439  0.58258540  1
  C  C34  1  0.09578627  0.01457533  0.60300931  1
  O  O35  1  0.03444210  0.00487412  0.68067310  1
  C  C36  1  0.21151507  0.19609239  0.50296792  1
  H  H37  1  0.36390526  0.38474759  0.08922586  1
  C  C38  1  0.25473361  0.45358728  0.18622172  1
  H  H39  1  0.27369584  0.46469048  0.36872084  1
  H  H40  1  0.23667619  0.38019285  0.31970709  1
  C  C41  1  0.30141144  0.36165217  0.25925769  1
  C  C42  1  0.35536678  0.29903358  0.26597750  1
  N  N43  1  0.20935160  0.49125226  0.10698784  1
  C  C44  1  0.31237608  0.39464432  0.16567392  1
  C  C45  1  0.25747808  0.48623634  0.28795997  1
  Cu  Cu46  1  0.02765384  0.40798386  0.05260821  1
  C  C47  1  0.12727634  0.27125467  0.02012245  1
  O  O48  1  0.03714264  0.41081052  0.36088170  1
  C  C49  1  0.00255062  0.27827489  0.00386408  1
  H  H50  1  0.38260681  0.26661623  0.03123868  1
  C  C51  1  0.04251395  0.46103069  0.40398108  1
  C  C52  1  0.45974859  0.27581179  0.20905302  1
  N  N53  1  0.31041530  0.25267142  0.32508986  1
  H  H54  1  0.34636388  0.39550954  0.48234782  1
  C  C55  1  0.48003078  0.31965579  0.49755454  1
  C  C56  1  0.20434415  0.31283936  0.96903473  1
  C  C57  1  0.28412306  0.36070012  0.82809089  1
  C  C58  1  0.16573347  0.41947780  0.56875266  1
  C  C59  1  0.24406372  0.42707388  0.65675747  1
  C  C60  1  0.30015568  0.37470173  0.71581957  1
  C  C61  1  0.12183110  0.46817034  0.50646737  1
  C  C62  1  0.25265139  0.49174793  0.69338690  1
  Cu  Cu63  1  0.16912037  0.47476337  0.95550514  1
  C  C64  1  0.38845456  0.35639996  0.52708675  1
  O  O65  1  0.12315915  0.29128579  0.62438949  1
  C  C66  1  0.37345422  0.34120873  0.64093961  1
  N  N67  1  0.17800401  0.35360259  0.88545131  1
  H  H68  1  0.14595999  0.37183900  0.53843801  1
  C  C69  1  0.37388770  0.32748129  0.88533206  1
  N  N70  1  0.45576886  0.30056479  0.67539016  1
  C  C71  1  0.33213847  0.30006399  0.97991352  1
  Cu  Cu72  1  0.02231012  0.38020381  0.85972500  1
  C  C73  1  0.47049665  0.49538227  0.83542248  1
  H  H74  1  0.46302598  0.32451784  0.85300108  1
  C  C75  1  0.20839859  0.54918677  0.15437244  1
  C  C76  1  0.42153692  0.71715404  0.38012634  1
  H  H77  1  0.22192944  0.58462645  0.32707395  1
  C  C78  1  0.22578841  0.66933373  0.15712378  1
  C  C79  1  0.16077197  0.72462899  0.14590763  1
  C  C80  1  0.32100397  0.66734586  0.22988477  1
  C  C81  1  0.20425998  0.61015445  0.09964257  1
  H  H82  1  0.10297432  0.72978427  0.07778069  1
  H  H83  1  0.38514357  0.63072977  0.21785172  1
  C  C84  1  0.22293740  0.54614620  0.26905071  1
  C  C85  1  0.32336072  0.71542064  0.30313961  1
  O  O86  1  0.49856266  0.67476626  0.37902324  1
  H  H87  1  0.09806927  0.56432881  0.47667470  1
  H  H88  1  0.49177853  0.52108390  0.00233095  1
  C  C89  1  0.14774219  0.64551864  0.80672858  1
  H  H90  1  0.13343631  0.67622409  0.73436847  1
  C  C91  1  0.28165806  0.59901095  0.59610966  1
  C  C92  1  0.16647800  0.66679920  0.91115426  1
  C  C93  1  0.19980653  0.54406999  0.62123394  1
  C  C94  1  0.13220435  0.52921678  0.52910082  1
  O  O95  1  0.39380187  0.58866562  0.58358464  1
  N  N96  1  0.15970447  0.56395695  0.92286331  1
  C  C97  1  0.13451849  0.53431125  0.72719390  1
  C  C98  1  0.15013650  0.58095624  0.81636065  1
  C  C99  1  0.42887832  0.59785638  0.90588079  1
  O  O100  1  0.24113456  0.64724618  0.57484390  1
  H  H101  1  0.18133750  0.71686798  0.93144389  1
  H  H102  1  0.05342345  0.50600722  0.73242034  1
  H  H103  1  0.37225166  0.61275643  0.84094057  1
  C  C104  1  0.46898604  0.64149881  0.98383754  1
  C  C105  1  0.17494998  0.61541242  0.98778916  1
  H  H106  1  0.45469521  0.50786317  0.74996137  1
  C  C107  1  0.46176403  0.53507477  0.92252828  1
  H  H108  1  0.32474348  0.50304312  0.74799769  1
  C  C109  1  0.07729855  0.81891388  0.23790931  1
  Cu  Cu110  1  0.02156528  0.92661514  0.44752110  1
  C  C111  1  0.43516738  0.89269472  0.18524599  1
  C  C112  1  0.15545217  0.88922300  0.04314886  1
  H  H113  1  0.34046414  0.91366027  0.33147759  1
  H  H114  1  0.24547586  0.79859355  0.37804676  1
  H  H115  1  0.41776134  0.84299025  0.20803072  1
  C  C116  1  0.38684237  0.93069021  0.25719185  1
  H  H117  1  0.12070030  0.89444997  0.12441627  1
  C  C118  1  0.24002606  0.76443378  0.31294996  1
  O  O119  1  0.08456009  0.85674851  0.30353204  1
  O  O120  1  0.42162955  0.76178953  0.44647195  1
  C  C121  1  0.15986128  0.76723252  0.23024475  1
  C  C122  1  0.38144447  0.99906810  0.23947546  1
  C  C123  1  0.49467342  0.91033703  0.08424123  1
  H  H124  1  0.16917478  0.98723379  0.00060480  1
  O  O125  1  0.05042328  0.85548361  0.53697164  1
  C  C126  1  0.23722610  0.85632582  0.88458267  1
  C  C127  1  0.45820368  0.94063373  0.52654752  1
  C  C128  1  0.29384848  0.95934132  0.78833656  1
  N  N129  1  0.22343976  0.80176386  0.90887718  1
  C  C130  1  0.34281926  0.93094409  0.69507471  1
  C  C131  1  0.47106622  0.88408710  0.97676676  1
  C  C132  1  0.40061032  0.96664552  0.62123736  1
  O  O133  1  0.44063155  0.88487305  0.50199988  1
  C  C134  1  0.23940190  0.92162286  0.87680712  1
  H  H135  1  0.34568171  0.88245632  0.68770732  1
  O  O136  1  0.12381338  0.97153194  0.53774295  1
  H  H137  1  0.41384637  0.84248473  0.95144774  1
  C  C138  1  0.03122747  0.83658731  0.63163758  1
  C  C139  1  0.17563569  0.93896299  0.97208257  1
  O  O140  1  0.07054294  0.86396040  0.71381981  1
  Cu  Cu141  1  0.00558821  0.93339781  0.77816930  1
  C  C142  1  0.18432013  0.83330782  0.98998740  1
  H  H143  1  0.53537333  0.17982723  0.20686482  1
  C  C144  1  0.89962528  0.00733302  0.17915305  1
  C  C145  1  0.79832675  0.01944879  0.00784223  1
  C  C146  1  0.86857060  0.15417077  0.49255175  1
  C  C147  1  0.90857815  0.21636992  0.47237065  1
  C  C148  1  0.99140931  0.04509543  0.14787763  1
  C  C149  1  0.98906089  0.06381772  0.04068499  1
  C  C150  1  0.70155656  0.10481517  0.75170104  1
  H  H151  1  0.88182328  0.07557646  0.88798421  1
  H  H152  1  0.75122983  0.09817988  0.67712283  1
  H  H153  1  0.59549597  0.18010304  0.83363404  1
  C  C154  1  0.64860849  0.16776528  0.76292199  1
  N  N155  1  0.66534274  0.04344194  0.74480682  1
  C  C156  1  0.68469333  0.04867250  0.84666191  1
  C  C157  1  0.89251318  0.05712394  0.97086833  1
  C  C158  1  0.63703049  0.20117296  0.67168782  1
  C  C159  1  0.69267811  0.01139854  0.93817563  1
  H  H160  1  0.66192368  0.23058805  0.50960631  1
  C  C161  1  0.61778246  0.23949386  0.58517780  1
  H  H162  1  0.89938987  0.24511643  0.54346329  1
  C  C163  1  0.79162392  0.04003257  0.50939745  1
  C  C164  1  0.83177792  0.10137129  0.50092855  1
  H  H165  1  0.93516795  0.18179054  0.97342370  1
  C  C166  1  0.91589328  0.22989270  0.99011331  1
  H  H167  1  0.71940691  0.22954136  0.99499490  1
  C  C168  1  0.79199876  0.31396959  0.41969400  1
  H  H169  1  0.58450552  0.46158320  0.13080782  1
  O  O170  1  0.84969993  0.26375479  0.38463433  1
  C  C171  1  0.68540386  0.40992671  0.37440896  1
  C  C172  1  0.74282464  0.33924456  0.23133858  1
  C  C173  1  0.73873568  0.35524824  0.33867467  1
  C  C174  1  0.69627305  0.38139310  0.15402389  1
  C  C175  1  0.62744766  0.43184119  0.19127496  1
  C  C176  1  0.63159981  0.44643808  0.29828524  1
  H  H177  1  0.79230140  0.29870928  0.20525846  1
  C  C178  1  0.71607728  0.35975712  0.04632141  1
  N  N179  1  0.93788510  0.33203392  0.02246308  1
  H  H180  1  0.68183522  0.42215938  0.45835528  1
  H  H181  1  0.51864191  0.30311322  0.15760798  1
  C  C182  1  0.82013055  0.32010076  0.01641304  1
  H  H183  1  0.52902995  0.32340182  0.41744886  1
  C  C184  1  0.65567272  0.35805786  0.84247876  1
  H  H185  1  0.71851037  0.32382094  0.80883446  1
  C  C186  1  0.52906733  0.43807429  0.86397535  1
  C  C187  1  0.89672776  0.48052670  0.90807926  1
  C  C188  1  0.64667248  0.37855083  0.95487233  1
  H  H189  1  0.56337871  0.39583476  0.69909947  1
  C  C190  1  0.57846090  0.39401922  0.78759919  1
  C  C191  1  0.51895184  0.28311775  0.59250169  1
  N  N192  1  0.56654119  0.42521497  0.96046143  1
  O  O193  1  0.78798590  0.32638495  0.51225423  1
  H  H194  1  0.71363738  0.47060165  0.90013517  1
  N  N195  1  0.99183776  0.45746673  0.92599732  1
  C  C196  1  0.80450503  0.25450734  0.99614044  1
  C  C197  1  0.92780781  0.71212895  0.16897937  1
  O  O198  1  0.90204792  0.66077530  0.39486348  1
  O  O199  1  0.51726636  0.53592483  0.31276362  1
  H  H200  1  0.87650146  0.61751635  0.11481171  1
  O  O201  1  0.65221860  0.52661066  0.43723295  1
  C  C202  1  0.89151570  0.66666660  0.09590516  1
  C  C203  1  0.88628400  0.64111511  0.48262803  1
  H  H204  1  0.94621063  0.70738060  0.25204566  1
  Cu  Cu205  1  0.81761991  0.52109606  0.40495463  1
  O  O206  1  0.97321511  0.50507827  0.37264572  1
  N  N207  1  0.51005331  0.63740829  0.08122680  1
  C  C208  1  0.56233989  0.67863017  0.03402850  1
  C  C209  1  0.63881271  0.73431869  0.02343837  1
  C  C210  1  0.59369547  0.50840681  0.35359261  1
  H  H211  1  0.67710052  0.73670385  0.31563725  1
  O  O212  1  0.64015052  0.74682669  0.53758660  1
  C  C213  1  0.90592505  0.65733599  0.68478688  1
  C  C214  1  0.92734337  0.69585203  0.77608510  1
  H  H215  1  0.60920768  0.67071954  0.83045395  1
  H  H216  1  0.86694787  0.61071844  0.69050724  1
  C  C217  1  0.74876607  0.56638744  0.87198634  1
  C  C218  1  0.81725563  0.61748409  0.87811610  1
  H  H219  1  0.65352258  0.57001928  0.84879953  1
  C  C220  1  0.88811302  0.66699782  0.88423429  1
  C  C221  1  0.91625666  0.67856491  0.58188926  1
  C  C222  1  0.90346548  0.69608018  0.99293874  1
  O  O223  1  0.57596027  0.66351396  0.62368932  1
  C  C224  1  0.62060107  0.71690744  0.62292453  1
  C  C225  1  0.78735997  0.50302533  0.88937628  1
  C  C226  1  0.63769190  0.72202555  0.81951466  1
  C  C227  1  0.95283939  0.74047443  0.56300470  1
  Cu  Cu228  1  0.50356776  0.63054315  0.50486724  1
  O  O229  1  0.86562782  0.58459828  0.50675694  1
  H  H230  1  0.72881221  0.96665552  0.14455754  1
  N  N231  1  0.57959751  0.95405546  0.07784579  1
  C  C232  1  0.95068222  0.76648502  0.10699570  1
  C  C233  1  0.68077001  0.78673704  0.30328008  1
  C  C234  1  0.89088484  0.98075524  0.28671341  1
  N  N235  1  0.67463451  0.87010636  0.44539301  1
  O  O236  1  0.80691657  0.94623238  0.31105038  1
  C  C237  1  0.67906782  0.83225660  0.37853543  1
  C  C238  1  0.67037475  0.81162241  0.19533663  1
  H  H239  1  0.68005084  0.86011485  0.17790184  1
  Cu  Cu240  1  0.66120169  0.95915956  0.38388282  1
  O  O241  1  0.97333601  0.99122053  0.35517965  1
  C  C242  1  0.65497700  0.77146482  0.11217206  1
  O  O243  1  0.98430189  0.82167442  0.15490706  1
  O  O244  1  0.52568686  0.97593408  0.47246032  1
  C  C245  1  0.80281996  0.99265867  0.11004857  1
  H  H246  1  0.96790433  0.75566776  0.48043074  1
  N  N247  1  0.93524360  0.75538275  0.00341993  1
  C  C248  1  0.78525779  0.90317435  0.78619439  1
  C  C249  1  0.53381767  0.92203809  0.90978088  1
  Cu  Cu250  1  0.64722862  0.97121069  0.64043820  1
  H  H251  1  0.68696231  0.83302807  0.63534470  1
  O  O252  1  0.85775340  0.92711519  0.85065598  1
  C  C253  1  0.65108742  0.75034530  0.72074794  1
  C  C254  1  0.69368259  0.81152415  0.71272096  1
  O  O255  1  0.76321558  0.92986065  0.69878878  1
  C  C256  1  0.72959476  0.81524534  0.90475298  1
  C  C257  1  0.74400691  0.83964794  0.80311347  1
  H  H258  1  0.75855779  0.84047742  0.97618718  1
  C  C259  1  0.61125382  0.96138478  0.97301058  1
  H  H260  1  0.98634313  0.78610239  0.83170949  1
  C  C261  1  0.67239275  0.75739705  0.91036874  1
  Cu  Cu262  1  0.81306824  0.90091955  0.51394959  1
  H  H263  1  0.52969420  0.91975461  0.81890569  1
  C  C264  1  0.97876591  0.77619698  0.65134010  1
  Cu  Cu265  1  0.53836300  0.81557689  0.50990480  1
  N  N266  1  0.75971524  0.98979965  0.51907310  1
  C  C267  1  0.96952618  0.75427545  0.76324057  1
