# generated using pymatgen
data_ZnH14C19N2O5
_symmetry_space_group_name_H-M   'P 1'
_cell_length_a   16.81980592
_cell_length_b   17.05165265
_cell_length_c   27.05261217
_cell_angle_alpha   90.00000000
_cell_angle_beta   90.00000000
_cell_angle_gamma   90.00000000
_symmetry_Int_Tables_number   1
_chemical_formula_structural   ZnH14C19N2O5
_chemical_formula_sum   'Zn16 H224 C304 N32 O80'
_cell_volume   7758.83764022
_cell_formula_units_Z   16
loop_
 _symmetry_equiv_pos_site_id
 _symmetry_equiv_pos_as_xyz
  1  'x, y, z'
loop_
 _atom_site_type_symbol
 _atom_site_label
 _atom_site_symmetry_multiplicity
 _atom_site_fract_x
 _atom_site_fract_y
 _atom_site_fract_z
 _atom_site_occupancy
  C  C0  1  0.20991288  0.15586874  0.09146678  1
  H  H1  1  0.02577549  0.25601937  0.12858162  1
  N  N2  1  0.07481248  0.41518692  0.14278614  1
  H  H3  1  0.48711621  0.16930538  0.20603068  1
  C  C4  1  0.36634580  0.24349733  0.12953043  1
  H  H5  1  0.31440167  0.39755835  0.21396016  1
  O  O6  1  0.14126566  0.21425462  0.17956056  1
  H  H7  1  0.18115134  0.34027578  0.20466423  1
  Zn  Zn8  1  0.00431389  0.37706770  0.19682355  1
  C  C9  1  0.25477707  0.32925927  0.05654798  1
  C  C10  1  0.37391974  0.10194440  0.11482023  1
  C  C11  1  0.38220253  0.18126226  0.09712033  1
  C  C12  1  0.32746453  0.13374926  0.24827420  1
  C  C13  1  0.08929206  0.38791384  0.10460012  1
  H  H14  1  0.39135160  0.05209409  0.08932083  1
  H  H15  1  0.30692148  0.29132742  0.04735982  1
  C  C16  1  0.09844757  0.32308032  0.06253983  1
  C  C17  1  0.33973244  0.12635127  0.01465880  1
  O  O18  1  0.20475258  0.39276000  0.20648297  1
  C  C19  1  0.38083851  0.18440228  0.04108145  1
  Zn  Zn20  1  0.16622245  0.41401895  0.04639458  1
  H  H21  1  0.33443054  0.47604063  0.11781711  1
  C  C22  1  0.36979359  0.43797983  0.21794656  1
  C  C23  1  0.12660189  0.20701457  0.22226170  1
  H  H24  1  0.24138288  0.18858778  0.12204943  1
  H  H25  1  0.16278157  0.07401615  0.18266453  1
  C  C26  1  0.35338998  0.22611342  0.17893178  1
  N  N27  1  0.35438034  0.15218852  0.19685789  1
  O  O28  1  0.31745088  0.46252394  0.08257901  1
  C  C29  1  0.17685959  0.28987559  0.05348729  1
  H  H30  1  0.04315889  0.28511156  0.05572094  1
  C  C31  1  0.36215025  0.09201733  0.16456110  1
  H  H32  1  0.26469338  0.38593959  0.13281884  1
  H  H33  1  0.03698726  0.00906928  0.17177389  1
  H  H34  1  0.35501288  0.03302614  0.18213379  1
  N  N35  1  0.18057759  0.03409944  0.05086019  1
  C  C36  1  0.17975469  0.20141021  0.05135202  1
  C  C37  1  0.26871358  0.40304419  0.09056271  1
  C  C38  1  0.16228434  0.06699921  0.22232644  1
  C  C39  1  0.20965219  0.07460508  0.08984174  1
  H  H40  1  0.23600197  0.03666913  0.11756825  1
  H  H41  1  0.30546749  0.07769720  0.02954578  1
  H  H42  1  0.35749656  0.30273223  0.11362170  1
  H  H43  1  0.32975492  0.26511331  0.20655159  1
  H  H44  1  0.44136795  0.29543354  0.03488675  1
  H  H45  1  0.26444798  0.15260172  0.24109759  1
  C  C46  1  0.14938753  0.15876933  0.01099699  1
  H  H47  1  0.19106908  0.40260752  0.23968567  1
  C  C48  1  0.14942513  0.07597988  0.01301600  1
  C  C49  1  0.41141263  0.24937131  0.01399068  1
  C  C50  1  0.43800225  0.42528931  0.24686440  1
  C  C51  1  0.15835838  0.05208139  0.32472097  1
  C  C52  1  0.34056459  0.25775012  0.29765959  1
  C  C53  1  0.14681142  0.04673980  0.38204913  1
  O  O54  1  0.20896002  0.05025298  0.49015820  1
  C  C55  1  0.37487562  0.30467162  0.33558711  1
  H  H56  1  0.44419056  0.37796607  0.27373568  1
  O  O57  1  0.07818408  0.39704583  0.41058805  1
  O  O58  1  0.36879009  0.43455389  0.36878073  1
  O  O59  1  0.13641631  0.10941512  0.40392856  1
  O  O60  1  0.13829694  0.29021321  0.43081893  1
  C  C61  1  0.44629786  0.16369826  0.31011578  1
  C  C62  1  0.13587547  0.36332726  0.42792897  1
  C  C63  1  0.27373475  0.37187919  0.45765829  1
  H  H64  1  0.24037973  0.42852896  0.34662847  1
  H  H65  1  0.08221667  0.23975221  0.28042365  1
  C  C66  1  0.34120767  0.41539691  0.47068628  1
  Zn  Zn67  1  0.13411398  0.17134933  0.47411363  1
  C  C68  1  0.20822935  0.41643817  0.44123307  1
  C  C69  1  0.34594343  0.49730642  0.46795112  1
  H  H70  1  0.27929888  0.30689931  0.45430981  1
  H  H71  1  0.15079705  0.17472314  0.32771610  1
  C  C72  1  0.34216716  0.38360106  0.34550698  1
  C  C73  1  0.44606692  0.28439824  0.35943391  1
  C  C74  1  0.14825666  0.12402202  0.30258098  1
  O  O75  1  0.26008621  0.38480144  0.32680150  1
  C  C76  1  0.41560344  0.37489434  0.48803397  1
  H  H77  1  0.28293495  0.27725849  0.28438933  1
  C  C78  1  0.37550671  0.18599834  0.28423014  1
  C  C79  1  0.48121871  0.21342054  0.34371611  1
  H  H80  1  0.47401717  0.32046464  0.38719347  1
  O  O81  1  0.47437029  0.41519519  0.49781912  1
  H  H82  1  0.47601812  0.10796869  0.30551581  1
  H  H83  1  0.18847089  0.01692530  0.45813070  1
  C  C84  1  0.20842209  0.49737134  0.43836269  1
  H  H85  1  0.32893678  0.06824820  0.25431368  1
  C  C86  1  0.14487798  0.13394462  0.25041953  1
  O  O87  1  0.10313383  0.27471329  0.25362863  1
  Zn  Zn88  1  0.32165212  0.25851330  0.54540091  1
  C  C89  1  0.07473960  0.05834537  0.57510557  1
  C  C90  1  0.19916426  0.02326506  0.68701782  1
  O  O91  1  0.08541337  0.13912196  0.54991807  1
  C  C92  1  0.39068354  0.11289641  0.73628985  1
  C  C93  1  0.37212661  0.09731963  0.57996705  1
  C  C94  1  0.04925130  0.32022141  0.63618063  1
  C  C95  1  0.03713920  0.46049866  0.57952026  1
  C  C96  1  0.20934159  0.15252263  0.72960263  1
  O  O97  1  0.24261690  0.33917968  0.58354942  1
  O  O98  1  0.40319380  0.18051809  0.58885641  1
  C  C99  1  0.23486232  0.09721448  0.68704563  1
  H  H100  1  0.11170938  0.13550967  0.64665714  1
  C  C101  1  0.28713497  0.12705539  0.65195676  1
  O  O102  1  0.40413918  0.05784435  0.54942257  1
  N  N103  1  0.02997178  0.06518182  0.62222498  1
  C  C104  1  0.30756954  0.07313149  0.61586822  1
  H  H105  1  0.46442741  0.20054129  0.68921883  1
  H  H106  1  0.30992035  0.18577427  0.65124923  1
  H  H107  1  0.16115240  0.44223347  0.55663426  1
  H  H108  1  0.03986018  0.17033336  0.73008528  1
  H  H109  1  0.44931597  0.17447825  0.56924698  1
  H  H110  1  0.13397863  0.04323154  0.58862474  1
  C  C111  1  0.10927803  0.35562604  0.60988669  1
  H  H112  1  0.18311793  0.20591568  0.71214792  1
  O  O113  1  0.20394293  0.26524159  0.64508541  1
  C  C114  1  0.19131821  0.31666754  0.61413295  1
  C  C115  1  0.11155970  0.42384922  0.58078616  1
  C  C116  1  0.05803317  0.10937704  0.65975601  1
  H  H117  1  0.05376499  0.27053629  0.66385681  1
  H  H118  1  0.15686247  0.00294236  0.71513408  1
  H  H119  1  0.36410905  0.07467406  0.70701746  1
  H  H120  1  0.03038704  0.15676599  0.55722149  1
  C  C121  1  0.44158609  0.17471384  0.72518436  1
  C  C122  1  0.01728951  0.12533786  0.70303138  1
  H  H123  1  0.27782074  0.14945727  0.50336892  1
  H  H124  1  0.16234656  0.05887437  0.51024919  1
  O  O125  1  0.24892164  0.19733891  0.50426007  1
  O  O126  1  0.40880910  0.30311406  0.50207352  1
  H  H127  1  0.33099633  0.38179030  0.86466018  1
  H  H128  1  0.39678186  0.11984630  0.86540384  1
  H  H129  1  0.27761974  0.26721721  0.93753514  1
  H  H130  1  0.07798872  0.02904135  0.79441311  1
  H  H131  1  0.29815417  0.09184010  0.94233509  1
  C  C132  1  0.02290989  0.10380622  0.92578888  1
  N  N133  1  0.36718026  0.19165656  0.93730491  1
  C  C134  1  0.45905397  0.19706258  0.80968002  1
  H  H135  1  0.13205703  0.03394546  0.98390155  1
  H  H136  1  0.40377382  0.02625031  0.98876048  1
  H  H137  1  0.00567618  0.25570111  0.91920600  1
  O  O138  1  0.16147533  0.23041775  0.81451065  1
  C  C139  1  0.26093206  0.01216707  0.83087713  1
  H  H140  1  0.08169334  0.21074341  0.90487197  1
  C  C141  1  0.06434353  0.04951204  0.83224650  1
  C  C142  1  0.08739874  0.12496390  0.84604566  1
  O  O143  1  0.11181762  0.46465245  0.95024703  1
  C  C144  1  0.13734019  0.16624475  0.80851489  1
  C  C145  1  0.42793169  0.42134082  0.94003113  1
  H  H146  1  0.13400098  0.18270962  0.97487194  1
  C  C147  1  0.33433842  0.13596970  0.96425247  1
  O  O148  1  0.30589030  0.39237133  0.83260208  1
  H  H149  1  0.25590812  0.05646383  0.86026856  1
  C  C150  1  0.06636786  0.15058600  0.89181092  1
  C  C151  1  0.40721012  0.13499893  0.82538940  1
  N  N152  1  0.36175957  0.44122972  0.93691090  1
  C  C153  1  0.37422292  0.09260175  0.78677295  1
  H  H154  1  0.24099030  0.31880087  0.89835328  1
  H  H155  1  0.32952764  0.44082454  0.82255004  1
  C  C156  1  0.40771380  0.24625746  0.96245026  1
  H  H157  1  0.43335811  0.28627506  0.93152574  1
  C  C158  1  0.31957306  0.02068988  0.79389027  1
  C  C159  1  0.49804550  0.04447705  0.93557082  1
  O  O160  1  0.22713844  0.29207576  0.92802236  1
  O  O161  1  0.15138599  0.12304132  0.76452410  1
  H  H162  1  0.49306762  0.23379292  0.83643869  1
  C  C163  1  0.12586878  0.49140231  0.98926639  1
  C  C164  1  0.43012265  0.00986284  0.95328052  1
  N  N165  1  0.47797023  0.21559392  0.76341577  1
  C  C166  1  0.01331974  0.02291463  0.91389434  1
  H  H167  1  0.33352651  0.43410238  0.97143190  1
  H  H168  1  0.26130294  0.17469513  0.75072089  1
  H  H169  1  0.17974875  0.78771946  0.05713972  1
  H  H170  1  0.23388354  0.61431394  0.19051847  1
  C  C171  1  0.36657342  0.86972336  0.09077473  1
  C  C172  1  0.03303007  0.95203629  0.15552697  1
  C  C173  1  0.17842361  0.99346469  0.24399101  1
  C  C174  1  0.17433414  0.66239374  0.07955211  1
  Zn  Zn175  1  0.11930172  0.51796990  0.17498965  1
  H  H176  1  0.28237930  0.97257433  0.00591618  1
  C  C177  1  0.13128995  0.70722782  0.00239730  1
  O  O178  1  0.21139814  0.73085807  0.15464654  1
  H  H179  1  0.18130878  0.53779439  0.08515693  1
  N  N180  1  0.06008493  0.86451640  0.08991661  1
  C  C181  1  0.17297115  0.72672624  0.04574053  1
  H  H182  1  0.40723566  0.91903427  0.17951388  1
  N  N183  1  0.23196329  0.85588040  0.23701441  1
  Zn  Zn184  1  0.42419262  0.65108312  0.14703124  1
  Zn  Zn185  1  0.38776320  0.80133919  0.02799382  1
  O  O186  1  0.21738630  0.59120541  0.15951962  1
  O  O187  1  0.30321254  0.87036769  0.10852170  1
  C  C188  1  0.16942847  0.58554292  0.05998418  1
  C  C189  1  0.19867203  0.67161586  0.13261732  1
  C  C190  1  0.46766284  0.61186955  0.08191952  1
  C  C191  1  0.44508033  0.90432212  0.10088660  1
  C  C192  1  0.45145939  0.93049714  0.15073679  1
  H  H193  1  0.15436147  0.90512771  0.18654939  1
  C  C194  1  0.13825433  0.56814743  0.01239539  1
  C  C195  1  0.03747135  0.80689339  0.12129116  1
  C  C196  1  0.20664679  0.92755568  0.20927869  1
  N  N197  1  0.35651147  0.50340191  0.19129219  1
  H  H198  1  0.05057395  0.75330440  0.10239759  1
  C  C199  1  0.41629345  0.55540271  0.19504816  1
  O  O200  1  0.03492463  0.55596187  0.11983691  1
  N  N201  1  0.46958192  0.65360964  0.04174915  1
  H  H202  1  0.25934164  0.93564607  0.18571708  1
  H  H203  1  0.34912787  0.89439255  0.23205371  1
  H  H204  1  0.17350811  0.88731367  0.03009887  1
  H  H205  1  0.49876802  0.90616521  0.02627306  1
  C  C206  1  0.05433087  0.93716283  0.10701267  1
  C  C207  1  0.31069646  0.84480187  0.24695090  1
  H  H208  1  0.08205387  0.98067834  0.08276122  1
  H  H209  1  0.49936449  0.51752256  0.13352998  1
  C  C210  1  0.48989746  0.54513281  0.22019286  1
  C  C211  1  0.00899169  0.81403075  0.16927456  1
  C  C212  1  0.00345796  0.89355625  0.18860127  1
  H  H213  1  0.11139652  0.82801810  0.24886233  1
  N  N214  1  0.13438540  0.54600860  0.24870529  1
  C  C215  1  0.33620933  0.77342042  0.26359489  1
  C  C216  1  0.17406166  0.80572009  0.25287980  1
  C  C217  1  0.19670453  0.73095249  0.26845197  1
  C  C218  1  0.14425278  0.71346062  0.36517801  1
  C  C219  1  0.43409156  0.69088686  0.33260841  1
  C  C220  1  0.38572216  0.62706876  0.32207857  1
  H  H221  1  0.37276992  0.74416059  0.42850167  1
  H  H222  1  0.39921278  0.53044783  0.47875431  1
  C  C223  1  0.30717025  0.63916904  0.29798174  1
  H  H224  1  0.18465912  0.93084573  0.31725787  1
  H  H225  1  0.27489489  0.84806321  0.32579603  1
  H  H226  1  0.06724108  0.89721060  0.38427681  1
  H  H227  1  0.41712728  0.75370840  0.32578497  1
  H  H228  1  0.40370222  0.89793024  0.35891486  1
  O  O229  1  0.07086346  0.60157506  0.33871132  1
  C  C230  1  0.22232236  0.82586306  0.39929069  1
  C  C231  1  0.07286828  0.67293271  0.34683016  1
  C  C232  1  0.23493012  0.83628255  0.45177799  1
  O  O233  1  0.38360180  0.89058896  0.42616297  1
  C  C234  1  0.07184495  0.83403315  0.37252793  1
  C  C235  1  0.27949463  0.71322127  0.27517164  1
  H  H236  1  0.32513678  0.63448291  0.41055797  1
  H  H237  1  0.20108303  0.68122733  0.37037084  1
  H  H238  1  0.40261546  0.56876085  0.33117650  1
  C  C239  1  0.14374677  0.79042518  0.37779773  1
  C  C240  1  0.28087459  0.84703731  0.36596834  1
  C  C241  1  0.35690026  0.87448714  0.38626281  1
  N  N242  1  0.34560630  0.66401740  0.48232880  1
  H  H243  1  0.15280785  0.68565522  0.28178300  1
  H  H244  1  0.28265881  0.87826819  0.46227126  1
  C  C245  1  0.26083518  0.57088352  0.30097043  1
  C  C246  1  0.19124344  0.55759020  0.27106265  1
  H  H247  1  0.40126873  0.76129965  0.26679808  1
  H  H248  1  0.23496614  0.66241322  0.44705296  1
  H  H249  1  0.28102384  0.52118552  0.32465209  1
  O  O250  1  0.16409159  0.98727980  0.40442955  1
  C  C251  1  0.28942977  0.62439965  0.44549370  1
  Zn  Zn252  1  0.01427083  0.53269589  0.27190572  1
  H  H253  1  0.15489188  0.52448805  0.42589484  1
  C  C254  1  0.20047862  0.78604337  0.48514748  1
  C  C255  1  0.27889130  0.53717851  0.45046354  1
  C  C256  1  0.38645416  0.72808862  0.46777082  1
  C  C257  1  0.17260844  0.98462650  0.29644769  1
  H  H258  1  0.13682550  0.69741547  0.49737450  1
  H  H259  1  0.45287616  0.82662993  0.49467799  1
  N  N260  1  0.00991853  0.72170112  0.33771934  1
  C  C261  1  0.00604528  0.79538777  0.35390576  1
  O  O262  1  0.47862160  0.95431071  0.25236113  1
  C  C263  1  0.00465576  0.85660096  0.53592388  1
  C  C264  1  0.26066999  0.65302329  0.71565183  1
  C  C265  1  0.22482559  0.97425919  0.64782378  1
  N  N266  1  0.46944138  0.94497931  0.69134644  1
  H  H267  1  0.30262629  0.95518624  0.58536065  1
  C  C268  1  0.38474559  0.67335337  0.56429333  1
  H  H269  1  0.38775679  0.64726213  0.60033025  1
  C  C270  1  0.03348669  0.99480208  0.54652624  1
  C  C271  1  0.25091769  0.61762137  0.66386059  1
  O  O272  1  0.21387653  0.84318543  0.61846541  1
  C  C273  1  0.18482996  0.89398782  0.64734152  1
  H  H274  1  0.37151239  0.82797100  0.62193549  1
  O  O275  1  0.13283574  0.88049965  0.67696583  1
  H  H276  1  0.06532688  0.90110168  0.59886428  1
  Zn  Zn277  1  0.17263497  0.73436376  0.58840008  1
  O  O278  1  0.19431156  0.64777761  0.63997060  1
  C  C279  1  0.21568703  0.71719285  0.72851326  1
  C  C280  1  0.42839882  0.76880470  0.50391194  1
  C  C281  1  0.43761249  0.82916873  0.62704200  1
  O  O282  1  0.03960187  0.74639690  0.58450698  1
  O  O283  1  0.29487452  0.56596242  0.65044070  1
  C  C284  1  0.33817432  0.63848435  0.52869907  1
  H  H285  1  0.17311276  0.74107547  0.70055019  1
  C  C286  1  0.28109045  0.99446628  0.61219944  1
  H  H287  1  0.36007612  0.97742941  0.72080173  1
  C  C288  1  0.03616597  0.91616069  0.56301185  1
  C  C289  1  0.47232024  0.89789622  0.65537390  1
  H  H290  1  0.27262673  0.85360496  0.72684910  1
  N  N291  1  0.17232793  0.74076915  0.51244466  1
  C  C292  1  0.43261030  0.73953132  0.55324461  1
  C  C293  1  0.48166278  0.77813198  0.59239659  1
  C  C294  1  0.03083073  0.53277338  0.54586229  1
  O  O295  1  0.08354085  0.54890169  0.51763070  1
  H  H296  1  0.29552819  0.58548768  0.53040692  1
  C  C297  1  0.00946043  0.76850674  0.54542559  1
  C  C298  1  0.31178052  0.61382013  0.74726266  1
  H  H299  1  0.34586745  0.56278895  0.73399669  1
  H  H300  1  0.15801835  0.93525831  0.85365659  1
  C  C301  1  0.19885957  0.88535617  0.99172159  1
  H  H302  1  0.40879095  0.81952493  0.92566792  1
  H  H303  1  0.37289118  0.92235010  0.84373436  1
  O  O304  1  0.37524876  0.63528456  0.87207290  1
  C  C305  1  0.10118827  0.78333179  0.97524636  1
  N  N306  1  0.17179489  0.83182165  0.95984578  1
  C  C307  1  0.21131013  0.94828148  0.82737949  1
  C  C308  1  0.27791749  0.89791690  0.75585663  1
  N  N309  1  0.22398518  0.89286806  0.79261410  1
  H  H310  1  0.14444482  0.81873213  0.82683626  1
  H  H311  1  0.43589046  0.53229893  0.88187562  1
  C  C312  1  0.32016655  0.64809355  0.79364155  1
  C  C313  1  0.17254994  0.81974531  0.78862678  1
  H  H314  1  0.07092846  0.77745172  0.93813434  1
  C  C315  1  0.43629596  0.78892792  0.95715103  1
  H  H316  1  0.44478154  0.72840981  0.94119717  1
  C  C317  1  0.37102404  0.61262626  0.83202609  1
  H  H318  1  0.08563693  0.62196391  0.94656273  1
  C  C319  1  0.38112347  0.96248019  0.92072321  1
  C  C320  1  0.21975339  0.74697461  0.77672373  1
  C  C321  1  0.30826416  0.91871689  0.93407195  1
  C  C322  1  0.27578494  0.86052502  0.90073376  1
  H  H323  1  0.30178243  0.84921471  0.86543312  1
  C  C324  1  0.47820611  0.99917145  0.85746971  1
  C  C325  1  0.20748695  0.82073309  0.91496112  1
  H  H326  1  0.28251010  0.73145764  0.84754190  1
  H  H327  1  0.12455446  0.83355585  0.76126479  1
  C  C328  1  0.27167038  0.71056037  0.80906361  1
  C  C329  1  0.40996862  0.95595366  0.87155972  1
  H  H330  1  0.17661256  0.77202099  0.89785053  1
  C  C331  1  0.26328668  0.93049048  0.97776345  1
  O  O332  1  0.42044880  0.54744654  0.81095627  1
  C  C333  1  0.11409403  0.63349602  0.98235748  1
  O  O334  1  0.02108039  0.88945489  0.81367217  1
  C  C335  1  0.46685739  0.51016050  0.84447618  1
  C  C336  1  0.03050696  0.99828233  0.86704839  1
  C  C337  1  0.32230413  0.96752370  0.75484604  1
  C  C338  1  0.00910539  0.91152346  0.85483244  1
  H  H339  1  0.49505896  0.64663510  0.97537134  1
  H  H340  1  0.06722942  0.82310851  0.99824562  1
  H  H341  1  0.50456773  0.39479059  0.13387057  1
  C  C342  1  0.90582900  0.23695711  0.21817043  1
  C  C343  1  0.86667973  0.03412310  0.15876650  1
  C  C344  1  0.89030967  0.27417893  0.04593473  1
  C  C345  1  0.82837055  0.44757979  0.07593629  1
  C  C346  1  0.87175001  0.16274635  0.21296314  1
  N  N347  1  0.95801405  0.26779922  0.18722369  1
  H  H348  1  0.61466569  0.17267340  0.11527877  1
  C  C349  1  0.73756110  0.49564542  0.17569779  1
  H  H350  1  0.56139912  0.25323240  0.14288142  1
  H  H351  1  0.83725772  0.46610085  0.22397708  1
  C  C352  1  0.89349099  0.11397233  0.17320736  1
  H  H353  1  0.69187128  0.38765861  0.12849742  1
  N  N354  1  0.64356882  0.27339218  0.08938448  1
  C  C355  1  0.84851855  0.41385957  0.02970452  1
  H  H356  1  0.54313185  0.10414477  0.19633933  1
  H  H357  1  0.84543815  0.42159413  0.11246502  1
  O  O358  1  0.53950947  0.16050091  0.19676144  1
  C  C359  1  0.67289298  0.19059400  0.09692681  1
  O  O360  1  0.76345197  0.35044430  0.17179459  1
  H  H361  1  0.73238152  0.28342282  0.03747578  1
  H  H362  1  0.96473218  0.10942005  0.10787934  1
  C  C363  1  0.58002260  0.29860059  0.11490683  1
  H  H364  1  0.67760001  0.42193200  0.01032009  1
  C  C365  1  0.69048903  0.15389914  0.04374932  1
  C  C366  1  0.73086903  0.41062250  0.16111141  1
  C  C367  1  0.98048321  0.22140811  0.14953022  1
  C  C368  1  0.55181511  0.37400876  0.10796733  1
  C  C369  1  0.68220416  0.31595476  0.05387903  1
  C  C370  1  0.58512915  0.42085874  0.06914405  1
  C  C371  1  0.92740360  0.20261054  0.03220969  1
  C  C372  1  0.65016862  0.38723688  0.03994861  1
  H  H373  1  0.79002010  0.08444375  0.07007723  1
  C  C374  1  0.89720852  0.34211159  0.01692890  1
  H  H375  1  0.73291911  0.23371206  0.14687120  1
  O  O376  1  0.72895153  0.17809200  0.13491206  1
  C  C377  1  0.75714065  0.10647225  0.03810414  1
  H  H378  1  0.90985106  0.14420061  0.04531605  1
  C  C379  1  0.95059883  0.14826300  0.13961931  1
  H  H380  1  0.85145152  0.27201281  0.07636187  1
  H  H381  1  0.78264367  0.02635277  0.22072611  1
  H  H382  1  0.83199693  0.13945617  0.24242432  1
  H  H383  1  0.92818488  0.02260096  0.08530844  1
  H  H384  1  0.58260169  0.20706861  0.01447625  1
  C  C385  1  0.63592930  0.17248543  0.00750868  1
  H  H386  1  0.65050275  0.02044512  0.02676887  1
  H  H387  1  0.88986646  0.28541783  0.24528564  1
  C  C388  1  0.55052889  0.49889993  0.05397441  1
  H  H389  1  0.64144266  0.00521218  0.14248786  1
  H  H390  1  0.68691812  0.28487400  0.24901397  1
  H  H391  1  0.98038043  0.08398405  0.00330289  1
  C  C392  1  0.55394005  0.18928773  0.37166875  1
  H  H393  1  0.64565461  0.13139611  0.35644208  1
  C  C394  1  0.81700586  0.15431427  0.33717767  1
  C  C395  1  0.95297094  0.26604721  0.39715673  1
  H  H396  1  0.54181807  0.34295018  0.30050823  1
  H  H397  1  0.69470921  0.33069308  0.44530766  1
  C  C398  1  0.90283130  0.28150265  0.35691879  1
  H  H399  1  0.90661007  0.15456720  0.42909216  1
  H  H400  1  0.67473850  0.20498121  0.44142191  1
  H  H401  1  0.73708381  0.06202213  0.30729716  1
  C  C402  1  0.84135503  0.23467920  0.33096950  1
  C  C403  1  0.78203723  0.19823822  0.49094700  1
  O  O404  1  0.58223204  0.22949282  0.40333732  1
  C  C405  1  0.78886983  0.28339769  0.30167097  1
  C  C406  1  0.94884882  0.38453694  0.29485925  1
  N  N407  1  0.85334923  0.44740262  0.48270920  1
  C  C408  1  0.65562253  0.37622713  0.33529761  1
  N  N409  1  0.71397267  0.17170586  0.27723387  1
  H  H410  1  0.90200373  0.40498279  0.37106274  1
  C  C411  1  0.71655023  0.16894666  0.46353295  1
  C  C412  1  0.58548700  0.38880082  0.30644723  1
  H  H413  1  0.84803826  0.11243284  0.36333935  1
  H  H414  1  0.79621780  0.34764564  0.29952166  1
  H  H415  1  0.75683846  0.47771779  0.45014814  1
  C  C416  1  0.91506047  0.36434505  0.33941866  1
  H  H417  1  0.68123623  0.32131816  0.35118074  1
  C  C418  1  0.69438773  0.08976421  0.46180984  1
  C  C419  1  0.75469881  0.12634692  0.30992035  1
  H  H420  1  0.67048338  0.15398203  0.25455064  1
  O  O421  1  0.90235383  0.03245970  0.41141485  1
  N  N422  1  0.71219666  0.42992993  0.33803801  1
  C  C423  1  0.95627238  0.20195125  0.42952302  1
  C  C424  1  0.79592373  0.28603036  0.48746500  1
  O  O425  1  0.59265688  0.11374507  0.35243050  1
  C  C426  1  0.75096021  0.34733747  0.46397357  1
  H  H427  1  0.64808120  0.06236146  0.43921652  1
  O  O428  1  0.99966446  0.18542716  0.46605429  1
  C  C429  1  0.78259741  0.42424820  0.46561239  1
  N  N430  1  0.74304795  0.03620244  0.48408099  1
  C  C431  1  0.72855698  0.24882916  0.27465153  1
  C  C432  1  0.57797876  0.46180211  0.28027970  1
  N  N433  1  0.97998973  0.42067755  0.26038474  1
  H  H434  1  0.90324411  0.01596978  0.33454942  1
  C  C435  1  0.69730596  0.49995365  0.31815721  1
  H  H436  1  0.99692747  0.01849314  0.25999822  1
  H  H437  1  0.99743406  0.31385151  0.40609190  1
  H  H438  1  0.98264011  0.07729039  0.49036417  1
  C  C439  1  0.50374444  0.47872259  0.25086718  1
  O  O440  1  0.76558879  0.48943258  0.57663295  1
  H  H441  1  0.92724224  0.24604366  0.61360468  1
  H  H442  1  0.91545788  0.47683106  0.60630758  1
  C  C443  1  0.94414644  0.08601461  0.71399910  1
  O  O444  1  0.88788720  0.29787270  0.68284166  1
  H  H445  1  0.94418440  0.15947750  0.61004049  1
  H  H446  1  0.95067160  0.41068194  0.52601354  1
  C  C447  1  0.90518149  0.35117574  0.65560541  1
  O  O448  1  0.71010011  0.01799935  0.66695044  1
  H  H449  1  0.84900852  0.38416863  0.64976220  1
  O  O450  1  0.93874012  0.20579155  0.59012741  1
  C  C451  1  0.96974493  0.44143274  0.60500348  1
  C  C452  1  0.91463988  0.03968620  0.67344137  1
  H  H453  1  0.91019051  0.27033482  0.52298654  1
  C  C454  1  0.95672453  0.03031854  0.62985665  1
  C  C455  1  0.80711292  0.06061608  0.50865286  1
  H  H456  1  0.87414308  0.15697878  0.54004722  1
  C  C457  1  0.82987299  0.14010142  0.51359928  1
  H  H458  1  0.79275775  0.46785742  0.54970029  1
  H  H459  1  0.80013896  0.02775495  0.74295426  1
  H  H460  1  0.85972864  0.00786268  0.67696302  1
  C  C461  1  0.87009304  0.31287732  0.50630679  1
  C  C462  1  0.98251435  0.36948960  0.63104776  1
  C  C463  1  0.99261346  0.01454271  0.50169702  1
  H  H464  1  0.61840954  0.06518450  0.73813391  1
  H  H465  1  0.84175636  0.00823121  0.52300145  1
  H  H466  1  0.71251546  0.01377123  0.57513208  1
  O  O467  1  0.55985488  0.04579227  0.74878775  1
  H  H468  1  0.52729733  0.09182046  0.74292374  1
  C  C469  1  0.89362933  0.39190202  0.50572118  1
  C  C470  1  0.53040604  0.45947190  0.84751689  1
  C  C471  1  0.75910343  0.32222068  0.92631662  1
  C  C472  1  0.67931514  0.34647435  0.93292226  1
  C  C473  1  0.98901797  0.12744097  0.97344709  1
  C  C474  1  0.93449247  0.16822751  0.79067893  1
  O  O475  1  0.55664915  0.22992711  0.91077160  1
  H  H476  1  0.64155521  0.31507684  0.95999577  1
  H  H477  1  0.91275203  0.23970771  0.85547912  1
  H  H478  1  0.73425975  0.05708202  0.91758575  1
  H  H479  1  0.66661419  0.49165581  0.84496613  1
  C  C480  1  0.65326099  0.14529616  0.95893891  1
  N  N481  1  0.52670903  0.03590432  0.88903684  1
  C  C482  1  0.77198586  0.42201664  0.86803198  1
  C  C483  1  0.63998693  0.40192911  0.90249071  1
  C  C484  1  0.97266253  0.26646186  0.95379132  1
  N  N485  1  0.96363788  0.20052576  0.98592471  1
  O  O486  1  0.81496081  0.17789832  0.84144510  1
  N  N487  1  0.71302410  0.07152986  0.81241871  1
  Zn  Zn488  1  0.63582988  0.10582337  0.86044101  1
  H  H489  1  0.54042403  0.37535605  0.96959233  1
  H  H490  1  0.84362324  0.43816085  0.94808070  1
  C  C491  1  0.60492748  0.18014092  0.91891728  1
  C  C492  1  0.88631719  0.19548656  0.82797817  1
  C  C493  1  0.77971179  0.10605546  0.80758920  1
  H  H494  1  0.79096377  0.27310492  0.94580998  1
  H  H495  1  0.50465066  0.01107303  0.82131280  1
  C  C496  1  0.94477789  0.33636654  0.97246512  1
  N  N497  1  0.80151378  0.35855088  0.89183516  1
  H  H498  1  0.56430323  0.43430815  0.81339726  1
  C  C499  1  0.71935056  0.08891508  0.95183539  1
  C  C500  1  0.82785299  0.45739469  0.98679015  1
  C  C501  1  0.82590007  0.07370668  0.76932220  1
  H  H502  1  0.53963211  0.08761912  0.95461520  1
  C  C503  1  0.69308230  0.44294246  0.87051209  1
  C  C504  1  0.76910012  0.07473853  0.99144155  1
  H  H505  1  0.95804689  0.39175500  0.95374925  1
  C  C506  1  0.55562257  0.42564230  0.89508908  1
  H  H507  1  0.81965550  0.43964980  0.84091990  1
  C  C508  1  0.50921603  0.40273922  0.93700273  1
  H  H509  1  0.60961274  0.22117601  0.76342441  1
  H  H510  1  0.99487071  0.18848126  0.78735140  1
  C  C511  1  0.83087426  0.00802739  0.98070969  1
  H  H512  1  0.69209198  0.20253193  0.77934100  1
  C  C513  1  0.89986828  0.11111105  0.75879559  1
  O  O514  1  0.66317735  0.22562321  0.75207831  1
  C  C515  1  0.93989383  0.65879137  0.10292509  1
  N  N516  1  0.76523761  0.56095344  0.03604911  1
  C  C517  1  0.55899292  0.78178567  0.01226857  1
  C  C518  1  0.69015797  0.63008769  0.18399019  1
  H  H519  1  0.74563967  0.78673129  0.15409747  1
  H  H520  1  0.87767258  0.88354985  0.07284047  1
  C  C521  1  0.62629126  0.69535345  0.17449250  1
  O  O522  1  0.69149844  0.81191380  0.09235588  1
  H  H523  1  0.54117279  0.58784221  0.21633935  1
  H  H524  1  0.98975479  0.76386624  0.18977750  1
  C  C525  1  0.50306127  0.53995328  0.09285650  1
  C  C526  1  0.74935624  0.65005820  0.21860774  1
  C  C527  1  0.79868356  0.51234860  0.21086753  1
  O  O528  1  0.96015743  0.59923033  0.18008119  1
  C  C529  1  0.69401446  0.78554711  0.05011004  1
  C  C530  1  0.77668641  0.81220175  0.12049780  1
  C  C531  1  0.85980593  0.76535370  0.04644272  1
  C  C532  1  0.64406245  0.96360570  0.04623283  1
  H  H533  1  0.87158645  0.70818918  0.16703643  1
  C  C534  1  0.95650630  0.90088369  0.23545373  1
  O  O535  1  0.87307851  0.97608358  0.01020690  1
  C  C536  1  0.57393540  0.95763866  0.08289747  1
  C  C537  1  0.78812549  0.52043064  0.07438870  1
  C  C538  1  0.91097597  0.71338812  0.02325471  1
  C  C539  1  0.98138581  0.60302490  0.13710661  1
  C  C540  1  0.86231804  0.92215273  0.10652554  1
  C  C541  1  0.84572899  0.76307447  0.09785447  1
  C  C542  1  0.58524801  0.98326954  0.13111084  1
  C  C543  1  0.77282167  0.92647149  0.17628232  1
  C  C544  1  0.88410637  0.70747366  0.12568942  1
  H  H545  1  0.82645327  0.80611481  0.02334310  1
  O  O546  1  0.57752754  0.68399255  0.14209038  1
  C  C547  1  0.54721084  0.53609070  0.00727883  1
  N  N548  1  0.80333819  0.88677942  0.13503766  1
  O  O549  1  0.62955854  0.75061708  0.20285866  1
  Zn  Zn550  1  0.69679635  0.65966484  0.03895501  1
  C  C551  1  0.95376733  0.65885063  0.05212215  1
  H  H552  1  0.52507286  0.75562797  0.04439426  1
  H  H553  1  0.90168621  0.78400196  0.23086123  1
  H  H554  1  0.70198909  0.95111527  0.06170798  1
  H  H555  1  0.72596173  0.89383558  0.19336779  1
  H  H556  1  0.62866326  0.54160847  0.14254448  1
  C  C557  1  0.68025724  0.55553813  0.16631688  1
  H  H558  1  0.77749586  0.56345336  0.10401926  1
  C  C559  1  0.65004110  0.76306007  0.00587226  1
  C  C560  1  0.80057583  0.58823102  0.23065978  1
  H  H561  1  0.99471408  0.62011274  0.03478939  1
  C  C562  1  0.89295630  0.99586144  0.11560843  1
  C  C563  1  0.54434291  0.96508980  0.21902246  1
  C  C564  1  0.50372082  0.60816490  0.00721785  1
  C  C565  1  0.52520073  0.96409257  0.16498018  1
  C  C566  1  0.50397742  0.92201149  0.06632394  1
  C  C567  1  0.80402095  0.99857485  0.18657542  1
  H  H568  1  0.74784657  0.70746279  0.23773269  1
  O  O569  1  0.60528489  0.98295885  0.23725673  1
  H  H570  1  0.76796132  0.93851792  0.45379297  1
  H  H571  1  0.95352418  0.70358831  0.32527300  1
  N  N572  1  0.85792201  0.90949387  0.32095407  1
  C  C573  1  0.54872747  0.78062685  0.34734375  1
  C  C574  1  0.63294246  0.77637008  0.36255590  1
  C  C575  1  0.85290777  0.84281462  0.29177643  1
  C  C576  1  0.73650696  0.69826308  0.39305372  1
  C  C577  1  0.65805537  0.70217087  0.37894960  1
  C  C578  1  0.90147305  0.97188629  0.30536991  1
  H  H579  1  0.81514542  0.79850883  0.30572929  1
  H  H580  1  0.63530672  0.58224410  0.26942411  1
  O  O581  1  0.72392952  0.56606382  0.40986345  1
  O  O582  1  0.87746023  0.90196216  0.40912696  1
  C  C583  1  0.75994890  0.83765107  0.37282711  1
  H  H584  1  0.94764958  0.82749595  0.35192338  1
  C  C585  1  0.76908399  0.62073911  0.41237074  1
  H  H586  1  0.61608900  0.65482168  0.38183084  1
  C  C587  1  0.96793535  0.87514879  0.49115530  1
  H  H588  1  0.78633839  0.96942874  0.36949991  1
  C  C589  1  0.68054871  0.84521854  0.35914082  1
  H  H590  1  0.65041764  0.90196868  0.34897672  1
  C  C591  1  0.78596835  0.76395765  0.39194964  1
  C  C592  1  0.85753879  0.61169321  0.27206662  1
  C  C593  1  0.63534091  0.52212836  0.28598074  1
  C  C594  1  0.91217542  0.96688789  0.42923936  1
  H  H595  1  0.84507563  0.75719450  0.40621926  1
  C  C596  1  0.81561482  0.90836015  0.36817286  1
  O  O597  1  0.86223789  0.67650162  0.28867892  1
  O  O598  1  0.51603647  0.83543466  0.33045506  1
  H  H599  1  0.75279810  0.52989862  0.32157190  1
  H  H600  1  0.65835201  0.94420377  0.46443226  1
  H  H601  1  0.94285538  0.82617856  0.46990018  1
  O  O602  1  0.84143018  0.61575365  0.42695282  1
  O  O603  1  0.90259469  0.55692614  0.28862677  1
  H  H604  1  0.50970306  0.94320519  0.28326098  1
  C  C605  1  0.71954678  0.95093176  0.48054963  1
  C  C606  1  0.95917655  0.95354886  0.47556241  1
  O  O607  1  0.50501025  0.69781554  0.35340963  1
  C  C608  1  0.95243901  0.97161557  0.26466842  1
  Zn  Zn609  1  0.89727892  0.62507912  0.49300010  1
  H  H610  1  0.74340564  0.78770483  0.49110710  1
  C  C611  1  0.90204668  0.83995471  0.25084478  1
  O  O612  1  0.78470994  0.66160934  0.52716472  1
  H  H613  1  0.76363828  0.79293596  0.64660731  1
  C  C614  1  0.75687129  0.78843513  0.56904131  1
  C  C615  1  0.71892175  0.94778233  0.57441760  1
  C  C616  1  0.74528360  0.82545449  0.52442861  1
  O  O617  1  0.78280249  0.67318247  0.60909249  1
  C  C618  1  0.72718110  0.90688346  0.52932331  1
  C  C619  1  0.77293998  0.69955374  0.56903439  1
  O  O620  1  0.98583356  0.72562307  0.51086064  1
  O  O621  1  0.96384230  0.56597823  0.54650154  1
  C  C622  1  0.75171085  0.82779795  0.61357607  1
  Zn  Zn623  1  0.56834945  0.85183102  0.61915837  1
  C  C624  1  0.72840733  0.90653180  0.61728120  1
  O  O625  1  0.70064489  0.90929485  0.70762999  1
  C  C626  1  0.71593041  0.94792941  0.66760348  1
  C  C627  1  0.57138004  0.70090742  0.65901601  1
  H  H628  1  0.59113838  0.70945900  0.57606951  1
  C  C629  1  0.55634002  0.73638298  0.60600945  1
  H  H630  1  0.77821822  0.54709022  0.57942638  1
  O  O631  1  0.54588894  0.72121515  0.69829630  1
  H  H632  1  0.62113510  0.65574213  0.66527439  1
  H  H633  1  0.51211966  0.96698293  0.71385412  1
  H  H634  1  0.93281955  0.99647171  0.59871724  1
  C  C635  1  0.55917706  0.85315236  0.92977651  1
  O  O636  1  0.83287029  0.98640870  0.93472070  1
  H  H637  1  0.56655749  0.51144487  0.97242464  1
  Zn  Zn638  1  0.68337692  0.97158973  0.77307837  1
  C  C639  1  0.68241288  0.78626238  0.95259788  1
  C  C640  1  0.90839964  0.72022917  0.96675401  1
  H  H641  1  0.52293855  0.88631913  0.89846654  1
  O  O642  1  0.75354362  0.85721079  0.86937234  1
  C  C643  1  0.78958748  0.53026024  0.99257777  1
  O  O644  1  0.85138661  0.76834522  0.95007928  1
  H  H645  1  0.73714929  0.74990154  0.93852257  1
  Zn  Zn646  1  0.85621801  0.87407099  0.91355828  1
  C  C647  1  0.64620431  0.84262355  0.91873070  1
  O  O648  1  0.95073922  0.68669678  0.93838799  1
  C  C649  1  0.67951356  0.86897144  0.87126625  1
  Zn  Zn650  1  0.63309439  0.88054916  0.99149513  1
  O  O651  1  0.64459495  0.90069751  0.83569918  1
  H  H652  1  0.77174062  0.57062255  0.96134071  1
  O  O653  1  0.97883280  0.86738759  0.88703512  1
  C  C654  1  0.51109145  0.82332872  0.97356864  1
  H  H655  1  0.97981821  0.97880497  0.93878831  1
