# generated using pymatgen
data_Zn2H24(C11O4)3
_symmetry_space_group_name_H-M   'P 1'
_cell_length_a   15.26440742
_cell_length_b   29.42852883
_cell_length_c   18.15046949
_cell_angle_alpha   90.00000000
_cell_angle_beta   90.00000000
_cell_angle_gamma   90.00000000
_symmetry_Int_Tables_number   1
_chemical_formula_structural   Zn2H24(C11O4)3
_chemical_formula_sum   'Zn16 H192 C264 O96'
_cell_volume   8153.35522510
_cell_formula_units_Z   8
loop_
 _symmetry_equiv_pos_site_id
 _symmetry_equiv_pos_as_xyz
  1  'x, y, z'
loop_
 _atom_site_type_symbol
 _atom_site_label
 _atom_site_symmetry_multiplicity
 _atom_site_fract_x
 _atom_site_fract_y
 _atom_site_fract_z
 _atom_site_occupancy
  H  H0  1  0.01279999  0.17105744  0.05286062  1
  O  O1  1  0.00543154  0.22709917  0.16071249  1
  H  H2  1  0.14668239  0.23123032  0.45229197  1
  C  C3  1  0.35274069  0.18039464  0.36375436  1
  O  O4  1  0.25817172  0.20397138  0.05956821  1
  C  C5  1  0.36416004  0.20454081  0.42746778  1
  C  C6  1  0.28514189  0.21885324  0.46083052  1
  O  O7  1  0.10502673  0.16233607  0.26412855  1
  C  C8  1  0.11037043  0.18755121  0.31791007  1
  O  O9  1  0.36926144  0.21895277  0.19263985  1
  H  H10  1  0.41251562  0.16769021  0.33769363  1
  C  C11  1  0.27171626  0.17218120  0.32797871  1
  H  H12  1  0.26694007  0.15816668  0.27496328  1
  C  C13  1  0.45153046  0.22497287  0.20497655  1
  C  C14  1  0.19557374  0.19116592  0.35991004  1
  C  C15  1  0.02293038  0.01375757  0.12637745  1
  H  H16  1  0.08099169  0.03533985  0.12895239  1
  O  O17  1  0.05496048  0.21992590  0.32988606  1
  C  C18  1  0.20477648  0.21632387  0.42418873  1
  Zn  Zn19  1  0.46586790  0.17886344  0.06455789  1
  O  O20  1  0.45283843  0.21175177  0.46024795  1
  H  H21  1  0.13301068  0.24358122  0.00863460  1
  C  C22  1  0.24200767  0.22168817  0.93224204  1
  C  C23  1  0.03888129  0.16128676  0.58819805  1
  C  C24  1  0.27479183  0.21888074  0.85860507  1
  H  H25  1  0.33268335  0.19623491  0.84724483  1
  C  C26  1  0.10196211  0.24813829  0.60746382  1
  C  C27  1  0.12662891  0.16643764  0.59600852  1
  C  C28  1  0.25168878  0.21994949  0.63149753  1
  H  H29  1  0.16454028  0.13540384  0.59620071  1
  C  C30  1  0.16853691  0.24783317  0.95657741  1
  H  H31  1  0.41797473  0.19905750  0.56350552  1
  H  H32  1  0.01588959  0.12691364  0.58756665  1
  O  O33  1  0.29957154  0.19063124  0.64957572  1
  C  C34  1  0.15780558  0.21137011  0.60910628  1
  C  C35  1  0.45429501  0.22623670  0.53139739  1
  H  H36  1  0.00204635  0.14861416  0.92113429  1
  H  H37  1  0.47898651  0.14674506  0.92595733  1
  C  C38  1  0.28910298  0.19828213  0.99458542  1
  C  C39  1  0.01427846  0.24069221  0.59432675  1
  O  O40  1  0.35693435  0.17520258  0.98268402  1
  C  C41  1  0.23030424  0.24233965  0.80634235  1
  H  H42  1  0.25194622  0.23965928  0.74678579  1
  H  H43  1  0.28811189  0.23775175  0.51358864  1
  Zn  Zn44  1  0.31038095  0.26246650  0.11575175  1
  C  C45  1  0.41633551  0.27995303  0.30835031  1
  H  H46  1  0.43601972  0.38301704  0.40862056  1
  H  H47  1  0.38500824  0.32962601  0.39341060  1
  C  C48  1  0.30405037  0.39926162  0.36881599  1
  O  O49  1  0.36831156  0.28906902  0.01707952  1
  C  C50  1  0.22919359  0.31410150  0.22826995  1
  H  H51  1  0.30878270  0.39565502  0.24721046  1
  Zn  Zn52  1  0.04522281  0.27236109  0.25437637  1
  C  C53  1  0.24082656  0.33750237  0.30058454  1
  H  H54  1  0.34402963  0.42995042  0.37402792  1
  C  C55  1  0.43758419  0.30944497  0.36387250  1
  C  C56  1  0.29015048  0.37954032  0.30105365  1
  O  O57  1  0.47128108  0.48687678  0.41802402  1
  H  H58  1  0.06039688  0.32708215  0.41360848  1
  H  H59  1  0.34710304  0.27485091  0.29581256  1
  O  O60  1  0.26186918  0.32734621  0.16830293  1
  H  H61  1  0.18019628  0.28242082  0.36134654  1
  C  C62  1  0.21451394  0.31616025  0.36463046  1
  C  C63  1  0.47964100  0.25610087  0.26875527  1
  C  C64  1  0.27570679  0.37904809  0.43508161  1
  C  C65  1  0.22538741  0.33827211  0.43109888  1
  O  O66  1  0.18078632  0.27855614  0.22529667  1
  C  C67  1  0.00366565  0.33289023  0.44761010  1
  H  H68  1  0.21319392  0.32215460  0.48269538  1
  H  H69  1  0.34282117  0.45731832  0.46631556  1
  C  C70  1  0.46176323  0.37796678  0.46499497  1
  O  O71  1  0.49008955  0.25082210  0.02306266  1
  H  H72  1  0.41198339  0.35168185  0.48804038  1
  H  H73  1  0.32674711  0.31359011  0.88687150  1
  O  O74  1  0.11656899  0.29536633  0.77204397  1
  C  C75  1  0.45854641  0.42070914  0.50897536  1
  O  O76  1  0.42173913  0.39774330  0.97563323  1
  O  O77  1  0.10198843  0.44900271  0.72727912  1
  C  C78  1  0.40603166  0.43695724  0.86394024  1
  C  C79  1  0.48589314  0.41245856  0.58837218  1
  C  C80  1  0.44392400  0.40447012  0.74778869  1
  C  C81  1  0.39499035  0.47853213  0.82743060  1
  C  C82  1  0.16745929  0.48474390  0.83293345  1
  H  H83  1  0.34182792  0.44750539  0.56391990  1
  H  H84  1  0.16745232  0.45017193  0.85415969  1
  H  H85  1  0.15240949  0.38899762  0.78576584  1
  H  H86  1  0.07178239  0.33838978  0.55455053  1
  C  C87  1  0.15541439  0.27001332  0.82101220  1
  H  H88  1  0.44229283  0.36661600  0.85221248  1
  C  C89  1  0.04165712  0.32567462  0.79618208  1
  C  C90  1  0.44700242  0.44632628  0.70881952  1
  H  H91  1  0.12727279  0.28385914  0.61351045  1
  C  C92  1  0.44574673  0.27577467  0.90425889  1
  C  C93  1  0.02414567  0.36144105  0.67433623  1
  C  C94  1  0.00792298  0.33507898  0.52446596  1
  O  O95  1  0.37009679  0.46805104  0.98075924  1
  H  H96  1  0.34805535  0.30795680  0.75095340  1
  C  C97  1  0.39976964  0.29454880  0.78601792  1
  C  C98  1  0.08651046  0.40438251  0.77201988  1
  H  H99  1  0.06974298  0.33684563  0.85205518  1
  C  C100  1  0.12954725  0.48666296  0.76249997  1
  H  H101  1  0.44432797  0.38450178  0.61139507  1
  C  C102  1  0.43451306  0.27290795  0.98518371  1
  H  H103  1  0.46328656  0.37460165  0.71548161  1
  C  C104  1  0.38239991  0.29592247  0.86020418  1
  H  H105  1  0.06792877  0.28679737  0.90659284  1
  O  O106  1  0.46007768  0.45070322  0.63559465  1
  H  H107  1  0.05903588  0.42438736  0.81852508  1
  H  H108  1  0.04775599  0.39503991  0.65068634  1
  O  O109  1  0.28170318  0.26580198  0.63132964  1
  H  H110  1  0.07346198  0.33365949  0.65968366  1
  O  O111  1  0.47196048  0.27600331  0.67501452  1
  C  C112  1  0.43093067  0.39909162  0.82219578  1
  C  C113  1  0.47045036  0.27422277  0.74598178  1
  C  C114  1  0.13231847  0.27003585  0.89769203  1
  C  C115  1  0.39454613  0.43240594  0.94578037  1
  C  C116  1  0.41800702  0.48165586  0.75431692  1
  H  H117  1  0.33478978  0.26169105  0.65977100  1
  C  C118  1  0.36008574  0.43298420  0.50909879  1
  C  C119  1  0.01773427  0.36947959  0.75886492  1
  O  O120  1  0.29403946  0.39666138  0.50452210  1
  H  H121  1  0.41775671  0.25952842  0.54291592  1
  C  C122  1  0.43457221  0.56524340  0.40551019  1
  C  C123  1  0.23885906  0.69035113  0.12766649  1
  C  C124  1  0.07384586  0.64837738  0.16633566  1
  Zn  Zn125  1  0.44796666  0.51427386  0.03594756  1
  O  O126  1  0.36521828  0.69438346  0.04793438  1
  O  O127  1  0.39111521  0.69329291  0.49317312  1
  O  O128  1  0.40696780  0.58042953  0.09183839  1
  O  O129  1  0.42698576  0.55833179  0.20412026  1
  C  C130  1  0.12517467  0.66961946  0.22053328  1
  C  C131  1  0.44015584  0.58625279  0.15806250  1
  C  C132  1  0.33074706  0.70950663  0.10642347  1
  C  C133  1  0.10662868  0.65111027  0.09294203  1
  H  H134  1  0.10088605  0.67204140  0.27677733  1
  C  C135  1  0.49916874  0.62746325  0.18139044  1
  H  H136  1  0.49787731  0.60489212  0.29392575  1
  C  C137  1  0.20397579  0.68885016  0.19885913  1
  O  O138  1  0.36144767  0.73312739  0.15220690  1
  C  C139  1  0.45671732  0.52683383  0.44801425  1
  H  H140  1  0.00101576  0.72628845  0.48819254  1
  H  H141  1  0.24572320  0.70757670  0.23653799  1
  C  C142  1  0.41876082  0.60962769  0.42567430  1
  H  H143  1  0.07237614  0.63596449  0.04234885  1
  C  C144  1  0.18821284  0.67147783  0.07177908  1
  H  H145  1  0.43413033  0.55617645  0.34656706  1
  H  H146  1  0.39898480  0.63910032  0.39466313  1
  H  H147  1  0.20303106  0.66861760  0.01237970  1
  Zn  Zn148  1  0.37261076  0.62635284  0.00925829  1
  C  C149  1  0.15763450  0.56581350  0.77640599  1
  H  H150  1  0.41431526  0.51671450  0.73361946  1
  C  C151  1  0.19300834  0.56283732  0.84804804  1
  O  O152  1  0.41825805  0.67047019  0.60278377  1
  C  C153  1  0.12991991  0.53050455  0.73212140  1
  C  C154  1  0.21341084  0.60045056  0.90011497  1
  C  C155  1  0.08279591  0.62323115  0.63973586  1
  H  H156  1  0.15355695  0.60063940  0.75401865  1
  O  O157  1  0.32401161  0.71807103  0.78268509  1
  C  C158  1  0.40926633  0.66228121  0.53396662  1
  O  O159  1  0.19215156  0.64062357  0.87754050  1
  O  O160  1  0.25108613  0.59298801  0.96022234  1
  H  H161  1  0.45509373  0.59348109  0.60600729  1
  Zn  Zn162  1  0.32059192  0.70510788  0.66635648  1
  C  C163  1  0.20147408  0.51846205  0.87601017  1
  Zn  Zn164  1  0.06676899  0.65118260  0.83606787  1
  H  H165  1  0.09143638  0.53565729  0.67888337  1
  O  O166  1  0.11585371  0.68103243  0.72473081  1
  H  H167  1  0.18360030  0.59328693  0.57149066  1
  C  C168  1  0.47576269  0.53826036  0.52178100  1
  H  H169  1  0.49543813  0.51311727  0.56017200  1
  O  O170  1  0.21930940  0.66089690  0.64585923  1
  H  H171  1  0.23349966  0.51330627  0.92849992  1
  C  C172  1  0.11205696  0.59202923  0.58844748  1
  H  H173  1  0.21112591  0.71751755  0.90846922  1
  C  C174  1  0.14337429  0.65746115  0.67220702  1
  H  H175  1  0.37369838  0.50841898  0.85829246  1
  C  C176  1  0.45490979  0.58092170  0.54769574  1
  C  C177  1  0.05636875  0.55942336  0.56121884  1
  H  H178  1  0.08459102  0.53372025  0.52438466  1
  C  C179  1  0.42535517  0.61567794  0.50198368  1
  C  C180  1  0.35760300  0.74907049  0.81869808  1
  O  O181  1  0.46373342  0.61716183  0.92101527  1
  H  H182  1  0.48852978  0.63920491  0.79204645  1
  C  C183  1  0.49975776  0.57967870  0.90517029  1
  C  C184  1  0.17639001  0.80703812  0.13499065  1
  H  H185  1  0.24162208  0.79508145  0.16034066  1
  H  H186  1  0.21542278  0.85288695  0.26303374  1
  H  H187  1  0.18432147  0.78970798  0.27495427  1
  C  C188  1  0.03598020  0.96755841  0.13506619  1
  H  H189  1  0.30344977  0.76764492  0.48513718  1
  O  O190  1  0.10214685  0.83431640  0.33178219  1
  H  H191  1  0.12841308  0.88938386  0.13019875  1
  C  C192  1  0.21126494  0.79856593  0.41103376  1
  H  H193  1  0.10331846  0.95869831  0.14394843  1
  C  C194  1  0.13350615  0.82229815  0.39718568  1
  O  O195  1  0.20749305  0.83714571  0.08040830  1
  H  H196  1  0.14128146  0.77673621  0.10955423  1
  C  C197  1  0.08351509  0.83109266  0.46248497  1
  C  C198  1  0.08835286  0.87507934  0.17405765  1
  H  H199  1  0.25063622  0.78797659  0.36421293  1
  C  C200  1  0.16317534  0.82570389  0.26167830  1
  C  C201  1  0.11145487  0.82856330  0.19444025  1
  H  H202  1  0.09008697  0.89777941  0.22182705  1
  C  C203  1  0.24607564  0.78820962  0.47979268  1
  H  H204  1  0.01812487  0.84887442  0.45647449  1
  C  C205  1  0.03180107  0.80083951  0.20291518  1
  C  C206  1  0.01984142  0.79622772  0.03621608  1
  H  H207  1  0.03390520  0.82793158  0.06378269  1
  H  H208  1  0.03576835  0.77704951  0.25452946  1
  H  H209  1  0.15192244  0.75419893  0.01198537  1
  C  C210  1  0.00195392  0.75937364  0.08591767  1
  O  O211  1  0.00544460  0.75828958  0.15930052  1
  C  C212  1  0.23918017  0.81156327  0.01781311  1
  H  H213  1  0.06879066  0.83059364  0.57894706  1
  C  C214  1  0.35318551  0.80551225  0.92165259  1
  H  H215  1  0.40821984  0.82303683  0.89424437  1
  O  O216  1  0.29050260  0.76874649  0.62171909  1
  C  C217  1  0.31652548  0.76618818  0.88589686  1
  C  C218  1  0.01215508  0.79374985  0.96176291  1
  C  C219  1  0.21492048  0.78618606  0.61328479  1
  C  C220  1  0.31147366  0.82859896  0.97776829  1
  O  O221  1  0.16365839  0.79627687  0.66418600  1
  O  O222  1  0.42459687  0.77141937  0.79991827  1
  C  C223  1  0.20951465  0.77140813  0.98770707  1
  C  C224  1  0.24447812  0.75046577  0.92401995  1
  H  H225  1  0.34082719  0.86042573  0.99884250  1
  C  C226  1  0.19105640  0.80013664  0.53824840  1
  Zn  Zn227  1  0.06109672  0.75506801  0.70741274  1
  C  C228  1  0.10650927  0.82057628  0.53105861  1
  H  H229  1  0.02115913  0.82504430  0.92737177  1
  O  O230  1  0.00562326  0.78188453  0.80952015  1
  C  C231  1  0.72259407  0.23323553  0.08607168  1
  C  C232  1  0.81699591  0.14858021  0.27872815  1
  O  O233  1  0.51200183  0.11460280  0.04362630  1
  C  C234  1  0.69425644  0.19411770  0.34127708  1
  C  C235  1  0.94166731  0.03059673  0.10143060  1
  O  O236  1  0.70144490  0.19187940  0.08816413  1
  O  O237  1  0.64841144  0.09234270  0.06620254  1
  O  O238  1  0.89724910  0.13795718  0.27784876  1
  C  C239  1  0.93598236  0.08056871  0.09017474  1
  H  H240  1  0.85971827  0.24840163  0.47420339  1
  H  H241  1  0.64567541  0.17873061  0.30608846  1
  C  C242  1  0.78461084  0.18357613  0.33167485  1
  H  H243  1  0.59313571  0.21990165  0.41011131  1
  O  O244  1  0.86047580  0.09379779  0.07032111  1
  O  O245  1  0.76692195  0.12854621  0.23341981  1
  Zn  Zn246  1  0.75814496  0.12525668  0.12317206  1
  C  C247  1  0.96582493  0.23778819  0.02963672  1
  C  C248  1  0.81298002  0.23308369  0.43202805  1
  C  C249  1  0.84514887  0.20527378  0.37815246  1
  C  C250  1  0.66489616  0.21819231  0.40066366  1
  O  O251  1  0.99728825  0.10777431  0.10346509  1
  H  H252  1  0.91431078  0.19848408  0.37589129  1
  H  H253  1  0.81487880  0.01273164  0.08151316  1
  C  C254  1  0.72318852  0.24006020  0.44859770  1
  O  O255  1  0.50408841  0.20212909  0.16798523  1
  C  C256  1  0.59331868  0.10977146  0.02562783  1
  Zn  Zn257  1  0.99295887  0.15696097  0.19463344  1
  H  H258  1  0.61929864  0.24782343  0.24851200  1
  C  C259  1  0.98846251  0.19497605  0.00777487  1
  C  C260  1  0.73268898  0.22403739  0.94840224  1
  H  H261  1  0.75346501  0.21901350  0.83432024  1
  C  C262  1  0.66110290  0.16197742  0.81343272  1
  C  C263  1  0.78400048  0.18437220  0.72857688  1
  C  C264  1  0.82945459  0.22665630  0.62359551  1
  C  C265  1  0.61263593  0.12432820  0.94828125  1
  C  C266  1  0.57287509  0.16019904  0.83862826  1
  O  O267  1  0.68267719  0.18238626  0.75199807  1
  C  C268  1  0.68229790  0.04556712  0.67742434  1
  O  O269  1  0.89096233  0.18817965  0.59730071  1
  C  C270  1  0.74907121  0.06074508  0.56184982  1
  C  C271  1  0.54614926  0.14385917  0.90619737  1
  H  H272  1  0.71686419  0.12326482  0.51198080  1
  H  H273  1  0.67725889  0.18873201  0.55084910  1
  H  H274  1  0.81541184  0.17026359  0.78173818  1
  C  C275  1  0.63928248  0.08566810  0.67361231  1
  O  O276  1  0.59883271  0.15606557  0.61848601  1
  C  C277  1  0.74276243  0.03215668  0.62423921  1
  H  H278  1  0.52149766  0.17483078  0.80243801  1
  H  H279  1  0.79366890  0.13219707  0.83937525  1
  C  C280  1  0.98149778  0.18205121  0.93415509  1
  C  C281  1  0.70437982  0.10289705  0.56106896  1
  C  C282  1  0.72249501  0.13611881  0.85540701  1
  H  H283  1  0.60363987  0.10021962  0.72207836  1
  C  C284  1  0.95215156  0.21042436  0.87536053  1
  H  H285  1  0.52470358  0.21234253  0.66493112  1
  C  C286  1  0.97547156  0.19692346  0.59241365  1
  C  C287  1  0.69753123  0.11522378  0.91902012  1
  C  C288  1  0.60163411  0.18693696  0.55503091  1
  C  C289  1  0.64513346  0.11707288  0.61385329  1
  H  H290  1  0.78667589  0.15978824  0.68389287  1
  H  H291  1  0.74568754  0.09568119  0.94975676  1
  C  C292  1  0.82880977  0.22737264  0.70615465  1
  H  H293  1  0.78929102  0.05137841  0.51468775  1
  H  H294  1  0.71895266  0.18875417  0.95150648  1
  C  C295  1  0.54663047  0.24404781  0.63814112  1
  C  C296  1  0.55418189  0.23188781  0.56052659  1
  H  H297  1  0.56702118  0.23766825  0.90848983  1
  H  H298  1  0.76326382  0.22002007  0.60315022  1
  C  C299  1  0.75657590  0.24189604  0.88178292  1
  C  C300  1  0.91831872  0.22782881  0.73682145  1
  O  O301  1  0.95012206  0.19648912  0.80722188  1
  H  H302  1  0.96787470  0.20720659  0.70333513  1
  H  H303  1  0.59095970  0.23939795  0.77622049  1
  H  H304  1  0.57407858  0.16676976  0.50884960  1
  O  O305  1  0.72392182  0.25683639  0.14202554  1
  H  H306  1  0.56542626  0.46914633  0.49951728  1
  O  O307  1  0.53963258  0.48568751  0.10651670  1
  H  H308  1  0.76703830  0.32162986  0.05025679  1
  H  H309  1  0.55433857  0.43087610  0.42615563  1
  O  O310  1  0.83327262  0.32128536  0.30495699  1
  O  O311  1  0.67079100  0.37635263  0.07624261  1
  C  C312  1  0.96710813  0.25125119  0.11260883  1
  O  O313  1  0.97489064  0.32835168  0.29240795  1
  C  C314  1  0.90778545  0.32794431  0.33456131  1
  C  C315  1  0.56771840  0.26719691  0.27871618  1
  C  C316  1  0.64902134  0.42106227  0.32843727  1
  C  C317  1  0.67245046  0.46101579  0.36899659  1
  C  C318  1  0.74490697  0.44249077  0.12831269  1
  C  C319  1  0.71825931  0.39334567  0.12359569  1
  O  O320  1  0.75472554  0.37105938  0.17466202  1
  H  H321  1  0.65808737  0.30623688  0.34183522  1
  H  H322  1  0.65864996  0.38759074  0.35315832  1
  C  C323  1  0.79999792  0.45660584  0.18609688  1
  C  C324  1  0.91807462  0.32900766  0.41467224  1
  Zn  Zn325  1  0.82097633  0.30993582  0.19320229  1
  C  C326  1  0.51766803  0.45123496  0.46638962  1
  Zn  Zn327  1  0.54452216  0.38637337  0.02624362  1
  H  H328  1  0.77606558  0.33060610  0.43434395  1
  C  C329  1  0.61062688  0.41867544  0.25902867  1
  O  O330  1  0.92895383  0.28673495  0.12975965  1
  C  C331  1  0.58564361  0.29856989  0.33274610  1
  C  C332  1  0.84175486  0.33001640  0.45698645  1
  H  H333  1  0.67301679  0.45843603  0.02214275  1
  H  H334  1  0.82251288  0.43290639  0.22800057  1
  C  C335  1  0.59253710  0.46072159  0.22431957  1
  C  C336  1  0.71457719  0.47078197  0.07138438  1
  H  H337  1  0.59011980  0.38599044  0.23416342  1
  O  O338  1  0.69914133  0.45845128  0.43821702  1
  O  O339  1  0.54348270  0.35319763  0.42994207  1
  H  H340  1  0.57136713  0.27273788  0.45990934  1
  C  C341  1  0.52624203  0.32110819  0.37990221  1
  C  C342  1  0.54606231  0.45289606  0.15250537  1
  C  C343  1  0.73721619  0.25247675  0.01076948  1
  O  O344  1  0.51144877  0.41598964  0.13765385  1
  C  C345  1  0.75609385  0.29912785  0.00224965  1
  C  C346  1  0.63289916  0.36566020  0.76191303  1
  C  C347  1  0.94030215  0.47518943  0.83016537  1
  C  C348  1  0.63893287  0.39759857  0.89316378  1
  H  H349  1  0.79550985  0.33539415  0.56446495  1
  H  H350  1  0.78683921  0.29596579  0.68599501  1
  H  H351  1  0.71267893  0.26516153  0.74497803  1
  C  C352  1  0.66855039  0.39616235  0.81353506  1
  H  H353  1  0.87748338  0.36085203  0.77385282  1
  C  C354  1  0.79348047  0.44822151  0.57133922  1
  C  C355  1  0.73719525  0.42589465  0.79526339  1
  C  C356  1  0.93150988  0.25392282  0.90416879  1
  O  O357  1  0.66992393  0.42824855  0.93276387  1
  C  C358  1  0.88255206  0.46423705  0.94685894  1
  C  C359  1  0.85446628  0.33380952  0.53239075  1
  C  C360  1  0.71808678  0.40350569  0.66607252  1
  C  C361  1  0.75661892  0.42888633  0.72198163  1
  C  C362  1  0.67754750  0.49741051  0.61099467  1
  H  H363  1  0.96122292  0.46381315  0.77489321  1
  O  O364  1  0.69353034  0.26337506  0.50650811  1
  H  H365  1  0.55449550  0.40087472  0.59309006  1
  H  H366  1  0.63151246  0.34566873  0.64990359  1
  H  H367  1  0.58326365  0.33967740  0.77864025  1
  H  H368  1  0.77176172  0.35223074  0.91944579  1
  C  C369  1  0.66031645  0.36810428  0.68986494  1
  O  O370  1  0.79394565  0.30247231  0.80032620  1
  O  O371  1  0.73831840  0.40890042  0.59625039  1
  H  H372  1  0.76874990  0.44485005  0.84227446  1
  O  O373  1  0.90621552  0.39811845  0.86583326  1
  H  H374  1  0.84590050  0.45198593  0.61640401  1
  H  H375  1  0.91475672  0.27893592  0.86060297  1
  C  C376  1  0.91099114  0.44150839  0.88135423  1
  C  C377  1  0.78445401  0.26941706  0.72927840  1
  C  C378  1  0.93641053  0.26857862  0.97653114  1
  H  H379  1  0.69723082  0.49198307  0.67064513  1
  H  H380  1  0.58605645  0.30290178  0.54686091  1
  H  H381  1  0.91562688  0.41743604  0.75180833  1
  O  O382  1  0.58614134  0.36847256  0.91767017  1
  C  C383  1  0.93316715  0.34087307  0.57167777  1
  C  C384  1  0.76861830  0.31424530  0.93213738  1
  H  H385  1  0.62657987  0.48884893  0.73498691  1
  C  C386  1  0.59435172  0.26986718  0.51932040  1
  C  C387  1  0.93244448  0.38645730  0.78185864  1
  O  O388  1  0.94169792  0.35107510  0.64435780  1
  C  C389  1  0.77176195  0.28844198  0.86724160  1
  H  H390  1  0.82868727  0.43254351  0.52292360  1
  H  H391  1  0.93915864  0.26288076  0.74209801  1
  H  H392  1  0.80559661  0.45322227  0.70285976  1
  C  C393  1  0.53219585  0.25642439  0.79591920  1
  H  H394  1  0.91701320  0.30347094  0.98733535  1
  C  C395  1  0.75162172  0.49350830  0.55905795  1
  H  H396  1  0.62317196  0.47560903  0.59461493  1
  H  H397  1  0.85406369  0.25866848  0.59887804  1
  H  H398  1  0.98473133  0.30486030  0.80809787  1
  C  C399  1  0.51994099  0.25457792  0.87148988  1
  H  H400  1  0.96683627  0.26936710  0.59122261  1
  H  H401  1  0.61032352  0.25175755  0.66220905  1
  H  H402  1  0.85746192  0.44291706  0.99197441  1
  C  C403  1  0.78114434  0.66766648  0.30331758  1
  H  H404  1  0.85977515  0.57939864  0.25693521  1
  H  H405  1  0.92909321  0.69710805  0.20848963  1
  H  H406  1  0.70416192  0.68308910  0.18788615  1
  H  H407  1  0.60707966  0.53278204  0.22161438  1
  H  H408  1  0.77216158  0.65515439  0.11713089  1
  Zn  Zn409  1  0.94111110  0.60837592  0.09070929  1
  O  O410  1  0.70105148  0.65079741  0.34286226  1
  H  H411  1  0.67493266  0.53415663  0.34968685  1
  H  H412  1  0.86170229  0.51746044  0.22902898  1
  H  H413  1  0.83194759  0.66696089  0.34602131  1
  H  H414  1  0.75168479  0.70299311  0.30365616  1
  H  H415  1  0.98741480  0.68872465  0.08751976  1
  O  O416  1  0.97647101  0.63148879  0.18571355  1
  H  H417  1  0.87342103  0.52303094  0.01799755  1
  C  C418  1  0.91340757  0.66217368  0.22750095  1
  H  H419  1  0.56563441  0.67587618  0.33511317  1
  C  C420  1  0.57120898  0.70995588  0.22951963  1
  C  C421  1  0.75575334  0.68773992  0.45466590  1
  C  C422  1  0.81021337  0.59960529  0.22234970  1
  C  C423  1  0.76957361  0.73394991  0.07395928  1
  H  H424  1  0.74699824  0.58552335  0.23624624  1
  C  C425  1  0.81668257  0.64974424  0.22963201  1
  H  H426  1  0.94672693  0.65794624  0.28230825  1
  C  C427  1  0.69106719  0.66116577  0.41526949  1
  C  C428  1  0.77500413  0.67644508  0.16906073  1
  C  C429  1  0.62136749  0.65219053  0.46166195  1
  O  O430  1  0.80588645  0.58046111  0.14292982  1
  C  C431  1  0.78541071  0.53564377  0.13569195  1
  O  O432  1  0.80661344  0.72069390  0.13728376  1
  H  H433  1  0.57851192  0.72603023  0.11243001  1
  H  H434  1  0.57265455  0.62972767  0.43360279  1
  H  H435  1  0.67748235  0.67965244  0.05762677  1
  H  H436  1  0.81734343  0.69941759  0.42619304  1
  C  C437  1  0.70294062  0.71181469  0.03255436  1
  C  C438  1  0.55600450  0.70208654  0.15507390  1
  C  C439  1  0.99393316  0.71811610  0.04817973  1
  H  H440  1  0.70927685  0.53952754  0.03511637  1
  H  H441  1  0.51550550  0.65328741  0.07148680  1
  C  C442  1  0.55105286  0.67340155  0.27591363  1
  C  C443  1  0.52183698  0.66039848  0.13023128  1
  C  C444  1  0.51541951  0.63129483  0.25668240  1
  H  H445  1  0.67053003  0.52593591  0.47464397  1
  H  H446  1  0.77981974  0.51410725  0.44913572  1
  C  C447  1  0.73134795  0.51646236  0.08107326  1
  C  C448  1  0.94511610  0.74847276  0.47076714  1
  H  H449  1  0.96153422  0.73748331  0.35575084  1
  C  C450  1  0.81800853  0.50339475  0.18546704  1
  C  C451  1  0.72106308  0.50018209  0.47793180  1
  C  C452  1  0.61999839  0.50230774  0.25412902  1
  C  C453  1  0.65903523  0.50051540  0.32460984  1
  C  C454  1  0.68031999  0.68951331  0.56977325  1
  C  C455  1  0.55078690  0.59539227  0.70787930  1
  C  C456  1  0.93329033  0.58899502  0.92204338  1
  H  H457  1  0.81215814  0.71751840  0.55524347  1
  C  C458  1  0.98939841  0.71220030  0.97377285  1
  C  C459  1  0.99227318  0.62434320  0.65961023  1
  C  C460  1  0.80960060  0.53193491  0.57696341  1
  O  O461  1  0.96084657  0.61338732  0.87078278  1
  H  H462  1  0.79707217  0.56458840  0.54474032  1
  C  C463  1  0.96638444  0.55416421  0.58078032  1
  C  C464  1  0.59915565  0.55465401  0.68900731  1
  C  C465  1  0.52003196  0.60591783  0.77672869  1
  O  O466  1  0.91200959  0.52452444  0.55491482  1
  C  C467  1  0.67154183  0.69609439  0.65258975  1
  H  H468  1  0.98216548  0.54395276  0.79905915  1
  H  H469  1  0.81404314  0.53892995  0.63840694  1
  C  C470  1  0.75569247  0.69972264  0.52702314  1
  O  O471  1  0.73481213  0.70973302  0.69010903  1
  C  C472  1  0.59736997  0.52260920  0.74610356  1
  O  O473  1  0.63557474  0.54727134  0.62418209  1
  H  H474  1  0.87087263  0.59208961  0.64409126  1
  C  C475  1  0.61622659  0.66495155  0.53649858  1
  C  C476  1  0.94194961  0.58904040  0.63236142  1
  O  O477  1  0.59336220  0.69696449  0.67335008  1
  H  H478  1  0.60194358  0.71109764  0.95278595  1
  H  H479  1  0.95763485  0.65067418  0.69242763  1
  C  C480  1  0.66687097  0.72566751  0.96721280  1
  C  C481  1  0.89521318  0.50855493  0.96419468  1
  C  C482  1  0.92710466  0.53897608  0.91110769  1
  C  C483  1  0.95204989  0.52100270  0.84123335  1
  O  O484  1  0.98334040  0.71056976  0.82005746  1
  O  O485  1  0.90465393  0.60489058  0.98166278  1
  O  O486  1  0.51517985  0.54928885  0.95171959  1
  C  C487  1  0.57016405  0.52985175  0.81644633  1
  H  H488  1  0.55522659  0.65618899  0.56262959  1
  C  C489  1  0.53124930  0.57201052  0.83009866  1
  H  H490  1  0.97665630  0.67614875  0.95493781  1
  H  H491  1  0.55027443  0.62306876  0.66920425  1
  C  C492  1  0.98889441  0.74891283  0.84677116  1
  O  O493  1  0.96907764  0.73923432  0.62258827  1
  H  H494  1  0.57489990  0.50384301  0.85977826  1
  C  C495  1  0.80255254  0.87837263  0.02267406  1
  C  C496  1  0.74484208  0.81736799  0.29059281  1
  H  H497  1  0.59403157  0.88693841  0.22034419  1
  C  C498  1  0.58952132  0.82805349  0.41253756  1
  O  O499  1  0.67416669  0.85261036  0.09253448  1
  H  H500  1  0.70898730  0.91982629  0.44830649  1
  C  C501  1  0.58257372  0.80756145  0.48004983  1
  C  C502  1  0.71267556  0.86820099  0.03271144  1
  H  H503  1  0.70059507  0.80999779  0.33488035  1
  C  C504  1  0.89051769  0.95194186  0.10734405  1
  H  H505  1  0.58507045  0.78666144  0.15476420  1
  C  C506  1  0.73110164  0.84130528  0.16258421  1
  H  H507  1  0.83473448  0.92780326  0.10494751  1
  H  H508  1  0.76581821  0.87195347  0.17371841  1
  H  H509  1  0.84636071  0.86989954  0.06833848  1
  O  O510  1  0.64471220  0.88646844  0.32401598  1
  H  H511  1  0.97181331  0.82248844  0.20441080  1
  H  H512  1  0.74162476  0.82470824  0.41083301  1
  C  C513  1  0.84695572  0.77898712  0.37136975  1
  H  H514  1  0.85957877  0.78988792  0.06035121  1
  H  H515  1  0.78593690  0.84663558  0.30569811  1
  O  O516  1  0.81940357  0.78359175  0.30228675  1
  H  H517  1  0.78419926  0.81592433  0.15173903  1
  H  H518  1  0.54391021  0.77650781  0.49326665  1
  C  C519  1  0.80110974  0.80256382  0.42762060  1
  C  C520  1  0.68246955  0.82558949  0.22821565  1
  C  C521  1  0.61574382  0.85831906  0.25565438  1
  H  H522  1  0.55312891  0.84083864  0.27603143  1
  C  C523  1  0.67026476  0.89059377  0.45268841  1
  C  C524  1  0.63683732  0.78188696  0.20131949  1
  C  C525  1  0.62965450  0.86937728  0.39205175  1
  H  H526  1  0.56011265  0.81018738  0.36423721  1
  O  O527  1  0.98736871  0.89024046  0.14533945  1
  C  C528  1  0.91868839  0.75437544  0.39871666  1
  C  C529  1  0.96966526  0.93298646  0.12973858  1
  C  C530  1  0.80040342  0.77290454  0.03617457  1
  O  O531  1  0.60597498  0.75023136  0.25557662  1
  H  H532  1  0.68792209  0.76214869  0.17070561  1
  C  C533  1  0.87640182  0.99788182  0.09500282  1
  C  C534  1  0.65693972  0.87909950  0.97190513  1
  C  C535  1  0.89228170  0.77099968  0.52388919  1
  O  O536  1  0.72357754  0.79740980  0.81590814  1
  O  O537  1  0.87523187  0.79488239  0.64992722  1
  Zn  Zn538  1  0.73275842  0.98610105  0.71160944  1
  C  C539  1  0.60605442  0.81613078  0.61508856  1
  H  H540  1  0.90569154  0.90325180  0.95614594  1
  O  O541  1  0.53816448  0.79356015  0.62865196  1
  O  O542  1  0.65955755  0.82384402  0.66459200  1
  C  C543  1  0.77516334  0.90198371  0.89833573  1
  H  H544  1  0.81027328  0.81131983  0.93690158  1
  H  H545  1  0.58663254  0.86814954  0.98180528  1
  O  O546  1  0.88871425  0.92673910  0.82061803  1
  C  C547  1  0.81118992  0.92117030  0.82527546  1
  C  C548  1  0.68503419  0.89611568  0.90535409  1
  O  O549  1  0.75616048  0.92784353  0.77190450  1
  C  C550  1  0.77409285  0.78602965  0.96689607  1
  H  H551  1  0.63696755  0.90486747  0.86133962  1
  C  C552  1  0.61760072  0.83401226  0.53730180  1
  C  C553  1  0.83489971  0.89265678  0.95498895  1
  C  C554  1  0.86868171  0.95537197  0.54660739  1
  H  H555  1  0.77497709  0.81369713  0.53921604  1
  H  H556  1  0.68877288  0.89170853  0.57204973  1
  Zn  Zn557  1  0.76660236  0.77938152  0.70977366  1
  C  C558  1  0.91191481  0.76832004  0.60440131  1
  C  C559  1  0.99110227  0.75116434  0.92891753  1
  C  C560  1  0.67890582  0.77146043  0.85372894  1
  C  C561  1  0.82307341  0.79866563  0.50157356  1
  O  O562  1  0.94035784  0.95183299  0.56533046  1
  Zn  Zn563  1  0.53311588  0.75609436  0.73246322  1
  O  O564  1  0.60820900  0.75290176  0.83018459  1
  C  C565  1  0.70725325  0.76136964  0.93125645  1
  O  O566  1  0.79600615  0.96034905  0.52688648  1
  C  C567  1  0.65709928  0.87574740  0.52378010  1
