# generated using pymatgen
data_CuH4(C3N2)2
_symmetry_space_group_name_H-M   'P 1'
_cell_length_a   7.42146694
_cell_length_b   25.83891255
_cell_length_c   13.79966801
_cell_angle_alpha   90.00000000
_cell_angle_beta   90.00000000
_cell_angle_gamma   90.00000000
_symmetry_Int_Tables_number   1
_chemical_formula_structural   CuH4(C3N2)2
_chemical_formula_sum   'Cu16 H64 C96 N64'
_cell_volume   2646.26070366
_cell_formula_units_Z   16
loop_
 _symmetry_equiv_pos_site_id
 _symmetry_equiv_pos_as_xyz
  1  'x, y, z'
loop_
 _atom_site_type_symbol
 _atom_site_label
 _atom_site_symmetry_multiplicity
 _atom_site_fract_x
 _atom_site_fract_y
 _atom_site_fract_z
 _atom_site_occupancy
  C  C0  1  0.17024296  0.16482153  0.04985589  1
  N  N1  1  0.09843713  0.01879669  0.43113458  1
  C  C2  1  0.12557256  0.18881276  0.30900841  1
  H  H3  1  0.11370171  0.17341298  0.11890624  1
  H  H4  1  0.35313352  0.04659690  0.45601551  1
  C  C5  1  0.03028563  0.06565473  0.11236693  1
  N  N6  1  0.25910610  0.20120756  0.27110943  1
  C  C7  1  0.20662419  0.05137750  0.47083941  1
  H  H8  1  0.00617644  0.09674054  0.16645186  1
  C  C9  1  0.11359324  0.06932452  0.01718966  1
  N  N10  1  0.24131753  0.20271138  0.00654600  1
  N  N11  1  0.49504994  0.16671534  0.26008434  1
  C  C12  1  0.10814294  0.08824283  0.53152739  1
  C  C13  1  0.16469324  0.15658916  0.66584943  1
  H  H14  1  0.11704437  0.01251500  0.88393611  1
  C  C15  1  0.25302095  0.13210050  0.89144710  1
  H  H16  1  0.27300742  0.10851039  0.82472626  1
  C  C17  1  0.21845599  0.12397716  0.58287235  1
  Cu  Cu18  1  0.37446484  0.23033483  0.80087388  1
  H  H19  1  0.03303168  0.15626877  0.70483347  1
  N  N20  1  0.29133329  0.17976402  0.88820087  1
  N  N21  1  0.29959090  0.18392925  0.69502573  1
  C  C22  1  0.09173350  0.02076429  0.96090606  1
  H  H23  1  0.09254255  0.03814689  0.67481497  1
  C  C24  1  0.40578331  0.13428977  0.56121610  1
  H  H25  1  0.40330935  0.00982362  0.66422192  1
  N  N26  1  0.13103405  0.00892276  0.71989816  1
  C  C27  1  0.18541122  0.11798876  0.98755370  1
  N  N28  1  0.47494806  0.16678821  0.62237841  1
  H  H29  1  0.49873124  0.12255811  0.50331510  1
  N  N30  1  0.25248622  0.26996980  0.19835493  1
  N  N31  1  0.21542310  0.26579052  0.07832790  1
  C  C32  1  0.25560590  0.34308316  0.13185654  1
  C  C33  1  0.40901857  0.43122221  0.17976725  1
  C  C34  1  0.21645463  0.31330983  0.04426767  1
  C  C35  1  0.09346028  0.40032439  0.40074927  1
  H  H36  1  0.26177295  0.33051716  0.30645194  1
  C  C37  1  0.31681938  0.39438936  0.11459986  1
  C  C38  1  0.28181037  0.39228980  0.40086838  1
  C  C39  1  0.25768521  0.31505737  0.22754556  1
  H  H40  1  0.42862062  0.43418752  0.25974874  1
  N  N41  1  0.44953099  0.45565483  0.01461125  1
  C  C42  1  0.34220914  0.41749930  0.01783065  1
  N  N43  1  0.43556164  0.38410731  0.40098111  1
  N  N44  1  0.49880185  0.46503785  0.13014889  1
  C  C45  1  0.02956889  0.45665779  0.38834630  1
  C  C46  1  0.11961196  0.49582598  0.33859259  1
  H  H47  1  0.29356189  0.40487435  0.94349298  1
  N  N48  1  0.25537477  0.47032231  0.75687916  1
  H  H49  1  0.17053311  0.48154537  0.93781120  1
  C  C50  1  0.22989399  0.33284968  0.59972044  1
  H  H51  1  0.22156328  0.32142052  0.96461282  1
  Cu  Cu52  1  0.04144899  0.26200422  0.74722780  1
  H  H53  1  0.10567663  0.42688255  0.65297485  1
  C  C54  1  0.37536428  0.39342368  0.71784166  1
  C  C55  1  0.23033457  0.43115418  0.70227900  1
  C  C56  1  0.39624099  0.34507097  0.66967839  1
  H  H57  1  0.14710405  0.34976691  0.76269678  1
  N  N58  1  0.10912950  0.30442695  0.62452871  1
  N  N59  1  0.10315932  0.32552241  0.82148512  1
  N  N60  1  0.45952581  0.45854062  0.81208365  1
  H  H61  1  0.38649391  0.26404443  0.95972217  1
  H  H62  1  0.19532542  0.35123993  0.53215635  1
  N  N63  1  0.43632161  0.28054611  0.89787353  1
  C  C64  1  0.49800966  0.41235436  0.79106160  1
  H  H65  1  0.24495990  0.52268071  0.06075829  1
  H  H66  1  0.08396658  0.70696536  0.03642587  1
  Cu  Cu67  1  0.22748338  0.71511359  0.40178030  1
  H  H68  1  0.37562999  0.57633238  0.19361650  1
  Cu  Cu69  1  0.48964500  0.66429992  0.34097389  1
  C  C70  1  0.18081496  0.68666644  0.08398139  1
  H  H71  1  0.00746518  0.69923250  0.27691841  1
  C  C72  1  0.32855617  0.61543706  0.16753238  1
  C  C73  1  0.22668858  0.63179785  0.07994736  1
  N  N74  1  0.20878120  0.52545522  0.29684777  1
  N  N75  1  0.36285267  0.65278668  0.22198481  1
  N  N76  1  0.25562252  0.70502960  0.16206695  1
  H  H77  1  0.12277512  0.55956077  0.28174603  1
  N  N78  1  0.03946244  0.67534579  0.33698697  1
  H  H79  1  0.39822953  0.74602100  0.03535568  1
  N  N80  1  0.45862135  0.68827210  0.48563861  1
  C  C81  1  0.43161463  0.70295758  0.73266843  1
  H  H82  1  0.47010644  0.67454745  0.67397740  1
  N  N83  1  0.14788519  0.52100938  0.92176059  1
  C  C84  1  0.12353113  0.63266244  0.90760238  1
  C  C85  1  0.15051068  0.66516811  0.56023314  1
  C  C86  1  0.19914428  0.56732133  0.57233824  1
  C  C87  1  0.09614033  0.61404454  0.58850736  1
  Cu  Cu88  1  0.16797740  0.53985520  0.79080570  1
  N  N89  1  0.11899315  0.60949052  0.82549429  1
  C  C90  1  0.32386059  0.67874729  0.52002380  1
  N  N91  1  0.10628198  0.53101129  0.61138199  1
  C  C92  1  0.46565502  0.69579279  0.83816825  1
  C  C93  1  0.19112734  0.60315996  0.99432155  1
  C  C94  1  0.43093700  0.73570581  0.90588358  1
  N  N95  1  0.38571923  0.74429980  0.69768950  1
  C  C96  1  0.03001177  0.70904988  0.55077722  1
  H  H97  1  0.13231103  0.67579409  0.89624414  1
  H  H98  1  0.31630332  0.55937243  0.52145310  1
  C  C99  1  0.18187207  0.54829687  0.99960707  1
  C  C100  1  0.39091541  0.90397179  0.25166194  1
  C  C101  1  0.29954598  0.82650410  0.35353440  1
  N  N102  1  0.24995613  0.77993767  0.33785794  1
  N  N103  1  0.26104400  0.77313673  0.21396001  1
  C  C104  1  0.32272805  0.85258822  0.25732854  1
  C  C105  1  0.28220569  0.81863605  0.17499965  1
  H  H106  1  0.31661963  0.84556375  0.42644677  1
  H  H107  1  0.29144509  0.82885878  0.09828025  1
  C  C108  1  0.40026200  0.94412826  0.17467304  1
  H  H109  1  0.35415559  0.94687765  0.09729899  1
  N  N110  1  0.01496236  0.98781268  0.01932196  1
  C  C111  1  0.45847977  0.92153679  0.34589267  1
  N  N112  1  0.48523487  0.98308515  0.21067189  1
  H  H113  1  0.01472378  0.94649922  0.45521964  1
  H  H114  1  0.48458792  0.90523705  0.42134831  1
  H  H115  1  0.28528045  0.91155868  0.65471986  1
  N  N116  1  0.25775321  0.83705783  0.60724926  1
  Cu  Cu117  1  0.32111131  0.76737718  0.56962565  1
  C  C118  1  0.29113419  0.86840873  0.86972572  1
  H  H119  1  0.13060026  0.84278303  0.63654765  1
  C  C120  1  0.25587921  0.91851573  0.83374327  1
  H  H121  1  0.20619424  0.83294533  0.86562363  1
  C  C122  1  0.35383124  0.87871531  0.61572372  1
  C  C123  1  0.40511534  0.95602299  0.84950426  1
  N  N124  1  0.40633682  0.76607343  0.96727927  1
  C  C125  1  0.03532532  0.96962538  0.71250665  1
  H  H126  1  0.37303817  0.77307404  0.75268631  1
  C  C127  1  0.09564748  0.92180537  0.77181661  1
  N  N128  1  0.44700553  0.86916086  0.90949659  1
  H  H129  1  0.41960012  0.99726453  0.82865413  1
  C  C130  1  0.79809061  0.14740696  0.31031184  1
  Cu  Cu131  1  0.54016450  0.05332020  0.17182396  1
  H  H132  1  0.56879209  0.19776654  0.09996654  1
  H  H133  1  0.57251547  0.20165182  0.37808934  1
  N  N134  1  0.89487546  0.03382170  0.47479301  1
  C  C135  1  0.77202812  0.09571792  0.30337780  1
  N  N136  1  0.57534891  0.04280636  0.04074712  1
  N  N137  1  0.74715304  0.05195131  0.29277323  1
  C  C138  1  0.91830450  0.19444119  0.44764612  1
  N  N139  1  0.55086303  0.12795618  0.16134002  1
  C  C140  1  0.59953837  0.15548672  0.08902054  1
  C  C141  1  0.62227920  0.17573110  0.31868235  1
  Cu  Cu142  1  0.70060142  0.00534956  0.40405127  1
  N  N143  1  0.97835564  0.01798706  0.13190674  1
  C  C144  1  0.96117466  0.17448775  0.35378740  1
  N  N145  1  0.73480645  0.18393021  0.75795282  1
  H  H146  1  0.53434492  0.13357541  0.79087681  1
  Cu  Cu147  1  0.68178173  0.21021103  0.63905039  1
  C  C148  1  0.64349486  0.15682369  0.81778752  1
  N  N149  1  0.50796276  0.01282215  0.61095709  1
  C  C150  1  0.87564647  0.19760258  0.91391099  1
  H  H151  1  0.65101137  0.05748089  0.90860423  1
  N  N152  1  0.90753904  0.21424815  0.82479008  1
  H  H153  1  0.80484170  0.09198607  0.57062189  1
  N  N154  1  0.87957816  0.21024580  0.52054144  1
  C  C155  1  0.72315472  0.16152170  0.91384424  1
  C  C156  1  0.62391929  0.07770633  0.97646696  1
  C  C157  1  0.91516633  0.07505711  0.52568338  1
  H  H158  1  0.95342897  0.20977883  0.97644430  1
  C  C159  1  0.64343869  0.13363499  0.99361950  1
  H  H160  1  0.87596153  0.32804476  0.17387395  1
  C  C161  1  0.86705623  0.46693848  0.44103385  1
  N  N162  1  0.77303029  0.30653690  0.14217227  1
  C  C163  1  0.75487705  0.31732907  0.06114403  1
  H  H164  1  0.71725875  0.34378497  0.42369760  1
  N  N165  1  0.84720728  0.33002071  0.43579806  1
  C  C166  1  0.95486883  0.36264285  0.42007670  1
  N  N167  1  0.73885179  0.46843436  0.49007799  1
  H  H168  1  0.50880059  0.41416344  0.43316605  1
  N  N169  1  0.80016334  0.47299288  0.89308415  1
  C  C170  1  0.82148995  0.42952669  0.90307128  1
  C  C171  1  0.84680154  0.37553295  0.91427303  1
  Cu  Cu172  1  0.88531188  0.28413373  0.56437876  1
  C  C173  1  0.55579799  0.31598939  0.67288333  1
  H  H174  1  0.75029625  0.29496253  0.74137805  1
  N  N175  1  0.69295958  0.29008128  0.67229132  1
  H  H176  1  0.61259730  0.39193204  0.82869130  1
  C  C177  1  0.57830587  0.30564295  0.92235806  1
  C  C178  1  0.73061662  0.32904452  0.96232365  1
  C  C179  1  0.98265938  0.34927743  0.86386060  1
  C  C180  1  0.94135798  0.64159877  0.35106818  1
  N  N181  1  0.63353654  0.71659003  0.28613997  1
  N  N182  1  0.64031719  0.51980108  0.17541274  1
  C  C183  1  0.87088721  0.58613319  0.18216661  1
  C  C184  1  0.76870504  0.57637454  0.27017885  1
  H  H185  1  0.58750571  0.71838136  0.14699514  1
  C  C186  1  0.62857971  0.53600190  0.26279470  1
  N  N187  1  0.82667964  0.55012542  0.12395628  1
  C  C188  1  0.80889409  0.59979441  0.36305824  1
  C  C189  1  0.65411674  0.73907414  0.20391101  1
  C  C190  1  0.68669066  0.58784039  0.44439930  1
  H  H191  1  0.66607736  0.50234034  0.48059857  1
  H  H192  1  0.99942431  0.61028140  0.16810945  1
  H  H193  1  0.54310932  0.51684779  0.31639388  1
  N  N194  1  0.57383951  0.57737834  0.49967119  1
  Cu  Cu195  1  0.69986537  0.73016366  0.49666203  1
  H  H196  1  0.61224764  0.64605807  0.03382041  1
  C  C197  1  0.93681164  0.60615396  0.64899374  1
  H  H198  1  0.61968768  0.58458691  0.57266691  1
  H  H199  1  0.51132844  0.61031043  0.71498490  1
  H  H200  1  0.84506822  0.63490668  0.68150917  1
  N  N201  1  0.69366235  0.58394870  0.94127213  1
  Cu  Cu202  1  0.81861941  0.51777291  0.76774740  1
  C  C203  1  0.61393231  0.62843492  0.95850121  1
  N  N204  1  0.67091907  0.57452654  0.81491255  1
  N  N205  1  0.92404934  0.55727719  0.66674525  1
  C  C206  1  0.56684409  0.61051854  0.78670399  1
  Cu  Cu207  1  0.54339202  0.50185805  0.91366892  1
  C  C208  1  0.52863897  0.64556596  0.86884547  1
  N  N209  1  0.94995105  0.74608760  0.54816814  1
  Cu  Cu210  1  0.84484668  0.53422933  0.99332044  1
  H  H211  1  0.78110432  0.88569990  0.26725273  1
  Cu  Cu212  1  0.81931377  0.98417082  0.21714662  1
  C  C213  1  0.80139749  0.81410006  0.03700948  1
  C  C214  1  0.79728183  0.79339428  0.31219678  1
  C  C215  1  0.74174059  0.78843573  0.21187025  1
  N  N216  1  0.52213663  0.96756873  0.33517796  1
  H  H217  1  0.88688334  0.82377932  0.34488226  1
  N  N218  1  0.83992478  0.92013836  0.14580503  1
  C  C219  1  0.80036331  0.87739952  0.18753809  1
  C  C220  1  0.79398564  0.82625709  0.13990137  1
  H  H221  1  0.78171810  0.77460055  0.00289861  1
  Cu  Cu222  1  0.92510072  0.92080674  0.01838389  1
  N  N223  1  0.73252863  0.75492290  0.36829173  1
  N  N224  1  0.94874929  0.91140209  0.46993819  1
  C  C225  1  0.65565595  0.92325691  0.57287149  1
  H  H226  1  0.82406675  0.84235348  0.90553177  1
  C  C227  1  0.57382276  0.97277072  0.59581971  1
  N  N228  1  0.88772722  0.84288667  0.76340427  1
  C  C229  1  0.63711253  0.83311932  0.54601207  1
  N  N230  1  0.56284916  0.78871974  0.53627552  1
  H  H231  1  0.78360304  0.82824540  0.53134457  1
  C  C232  1  0.81790195  0.91782161  0.51584311  1
  H  H233  1  0.77785705  0.84720195  0.71781984  1
  N  N234  1  0.52885169  0.93188719  0.89154544  1
  C  C235  1  0.97707937  0.88018563  0.76547978  1
  C  C236  1  0.54110251  0.87604064  0.58786560  1
  N  N237  1  0.83628762  0.85322500  0.97800143  1
  H  H238  1  0.91649166  0.97081112  0.65881672  1
  H  H239  1  0.53189410  0.84345571  0.94175313  1
