# generated using pymatgen
data_Cu4H20C37O20
_symmetry_space_group_name_H-M   'P 1'
_cell_length_a   14.42304333
_cell_length_b   16.58217129
_cell_length_c   20.82321204
_cell_angle_alpha   90.00000000
_cell_angle_beta   90.00000000
_cell_angle_gamma   90.00000000
_symmetry_Int_Tables_number   1
_chemical_formula_structural   Cu4H20C37O20
_chemical_formula_sum   'Cu16 H80 C148 O80'
_cell_volume   4980.19131733
_cell_formula_units_Z   4
loop_
 _symmetry_equiv_pos_site_id
 _symmetry_equiv_pos_as_xyz
  1  'x, y, z'
loop_
 _atom_site_type_symbol
 _atom_site_label
 _atom_site_symmetry_multiplicity
 _atom_site_fract_x
 _atom_site_fract_y
 _atom_site_fract_z
 _atom_site_occupancy
  O  O0  1  0.16742949  0.08160838  0.12262119  1
  C  C1  1  0.21725345  0.13699395  0.15085891  1
  O  O2  1  0.28275917  0.12171163  0.18296930  1
  H  H3  1  0.07465833  0.19660017  0.08100851  1
  Cu  Cu4  1  0.08213925  0.03501540  0.17776759  1
  C  C5  1  0.18929123  0.22634019  0.13937077  1
  C  C6  1  0.11325810  0.24610965  0.10049286  1
  O  O7  1  0.00832937  0.12933191  0.16921709  1
  C  C8  1  0.90133873  0.03265251  0.01572897  1
  C  C9  1  0.91332340  0.22340731  0.23195653  1
  C  C10  1  0.92463417  0.15234511  0.18631910  1
  O  O11  1  0.85743785  0.11858075  0.16943367  1
  H  H12  1  0.97144077  0.05067068  0.01566363  1
  C  C13  1  0.70146878  0.00112549  0.02600623  1
  C  C14  1  0.19839858  0.18372659  0.47716019  1
  C  C15  1  0.39116118  0.17166024  0.43780367  1
  C  C16  1  0.34272743  0.10765955  0.47014582  1
  O  O17  1  0.47571124  0.16932142  0.41789217  1
  H  H18  1  0.12373333  0.18895629  0.48967926  1
  C  C19  1  0.24121948  0.24835485  0.44669805  1
  C  C20  1  0.25131461  0.11441666  0.48857389  1
  H  H21  1  0.38131636  0.04995441  0.48084253  1
  O  O22  1  0.00788558  0.00073947  0.25236581  1
  C  C23  1  0.33602427  0.24316416  0.43103547  1
  H  H24  1  0.82794118  0.17892221  0.49400650  1
  C  C25  1  0.65687315  0.15022577  0.38219407  1
  C  C26  1  0.82898665  0.24528266  0.25868079  1
  H  H27  1  0.89422188  0.08071425  0.28933336  1
  H  H28  1  0.64871882  0.23260169  0.27660613  1
  O  O29  1  0.74794399  0.13202084  0.35722852  1
  C  C30  1  0.62529165  0.23936865  0.37993447  1
  C  C31  1  0.84912485  0.03696747  0.31032052  1
  H  H32  1  0.60208373  0.11045236  0.36301277  1
  H  H33  1  0.65768158  0.13845368  0.43506315  1
  C  C34  1  0.77224691  0.05462194  0.34847097  1
  H  H35  1  0.66413734  0.00125702  0.40932935  1
  H  H36  1  0.77126632  0.20203880  0.25111359  1
  Cu  Cu37  1  0.10014588  0.11541781  0.64338839  1
  O  O38  1  0.13525923  0.04182877  0.54407167  1
  O  O39  1  0.13556920  0.22664815  0.65000022  1
  O  O40  1  0.11470314  0.10012310  0.73108191  1
  C  C41  1  0.21462285  0.04103955  0.51824782  1
  H  H42  1  0.23951050  0.19175251  0.74360404  1
  Cu  Cu43  1  0.02037749  0.00878457  0.50694204  1
  C  C44  1  0.93086587  0.12203964  0.58020208  1
  C  C45  1  0.72356856  0.20072949  0.66084627  1
  H  H46  1  0.84796626  0.13899157  0.69855960  1
  C  C47  1  0.67946538  0.21501550  0.72518408  1
  O  O48  1  0.97726710  0.09927430  0.63041929  1
  C  C49  1  0.84058534  0.16001313  0.59411884  1
  C  C50  1  0.80857596  0.16055116  0.65604110  1
  O  O51  1  0.95614395  0.10475887  0.52450726  1
  C  C52  1  0.79404865  0.18795049  0.53981043  1
  C  C53  1  0.67527486  0.23442122  0.60931572  1
  C  C54  1  0.70983144  0.22917505  0.54643607  1
  C  C55  1  0.07187833  0.13731283  0.77473278  1
  C  C56  1  0.11267917  0.21263539  0.80017409  1
  C  C57  1  0.20092072  0.23141427  0.77641829  1
  Cu  Cu58  1  0.00228746  0.04798382  0.87830736  1
  H  H59  1  0.00010678  0.24805156  0.85725645  1
  O  O60  1  0.99856596  0.11043377  0.79853544  1
  C  C61  1  0.86942608  0.13507319  0.93443280  1
  H  H62  1  0.69069293  0.09478722  0.95101201  1
  O  O63  1  0.81046023  0.17533993  0.90382121  1
  C  C64  1  0.83342485  0.07366005  0.97926626  1
  O  O65  1  0.95490251  0.13699583  0.91903306  1
  Cu  Cu66  1  0.81222343  0.20848126  0.82238775  1
  C  C67  1  0.73732511  0.05881756  0.98402264  1
  O  O68  1  0.71551348  0.17276255  0.77263966  1
  C  C69  1  0.13583141  0.38370777  0.12038190  1
  H  H70  1  0.11228506  0.44761152  0.11975147  1
  C  C71  1  0.08691183  0.32523818  0.08449680  1
  C  C72  1  0.20635786  0.36641324  0.16321955  1
  C  C73  1  0.25662418  0.43082903  0.19254812  1
  O  O74  1  0.01601520  0.33833630  0.04409686  1
  O  O75  1  0.30934440  0.40357872  0.23856409  1
  C  C76  1  0.23708780  0.28656833  0.17163218  1
  H  H77  1  0.43780603  0.48937119  0.08421371  1
  H  H78  1  0.06393025  0.25305362  0.22596609  1
  H  H79  1  0.29491205  0.27652589  0.20483892  1
  H  H80  1  0.06302115  0.44371429  0.03122275  1
  C  C81  1  0.63889440  0.47495525  0.00333574  1
  C  C82  1  0.98807339  0.42393449  0.03372138  1
  H  H83  1  0.95693394  0.45507519  0.07669839  1
  C  C84  1  0.70705375  0.49472053  0.04983026  1
  O  O85  1  0.79920087  0.49094695  0.03606242  1
  C  C86  1  0.54451490  0.47475522  0.01790136  1
  C  C87  1  0.51113688  0.48865976  0.07837766  1
  C  C88  1  0.99275796  0.26875242  0.24512543  1
  C  C89  1  0.41277194  0.45058262  0.47446563  1
  O  O90  1  0.21535399  0.37996737  0.40231851  1
  Cu  Cu91  1  0.25876221  0.38668231  0.31693456  1
  C  C92  1  0.06447530  0.38707047  0.29391109  1
  O  O93  1  0.05898360  0.45790772  0.31590619  1
  C  C94  1  0.18143849  0.32035898  0.43260160  1
  H  H95  1  0.36725326  0.29782224  0.41054826  1
  O  O96  1  0.09911217  0.32512317  0.45097640  1
  C  C97  1  0.35235949  0.49414459  0.43332252  1
  O  O98  1  0.14138019  0.35297881  0.28506579  1
  H  H99  1  0.48597709  0.26810344  0.35047461  1
  H  H100  1  0.68098849  0.34246905  0.42737295  1
  C  C101  1  0.50737424  0.44919576  0.45810133  1
  O  O102  1  0.65622285  0.26379043  0.49999216  1
  H  H103  1  0.51041100  0.28673343  0.43678328  1
  C  C104  1  0.64299395  0.27472502  0.31665720  1
  O  O105  1  0.63441804  0.47938418  0.38591434  1
  C  C106  1  0.89368486  0.36289243  0.30244581  1
  H  H107  1  0.66814759  0.42010588  0.47173409  1
  H  H108  1  0.76311189  0.43402281  0.41963511  1
  C  C109  1  0.81431600  0.31535081  0.29683157  1
  C  C110  1  0.70219992  0.46526876  0.44241651  1
  H  H111  1  0.59902018  0.32634706  0.30624006  1
  C  C112  1  0.54332194  0.48053689  0.39956714  1
  O  O113  1  0.73111873  0.33786240  0.31849003  1
  C  C114  1  0.98132836  0.33893472  0.28008463  1
  H  H115  1  0.89149655  0.42349988  0.32395798  1
  H  H116  1  0.55468357  0.42152248  0.49191393  1
  H  H117  1  0.76135194  0.25247944  0.42262932  1
  C  C118  1  0.52712724  0.25058193  0.39212400  1
  C  C119  1  0.68893451  0.27496501  0.42916891  1
  Cu  Cu120  1  0.24226355  0.40885976  0.62453629  1
  O  O121  1  0.16542768  0.33019037  0.58699640  1
  Cu  Cu122  1  0.39832254  0.32805383  0.63958249  1
  O  O123  1  0.43351716  0.37231755  0.57012062  1
  O  O124  1  0.36354764  0.27788277  0.71554347  1
  O  O125  1  0.29815710  0.43340522  0.54821216  1
  C  C126  1  0.11066074  0.29085014  0.62097040  1
  C  C127  1  0.37876640  0.41232673  0.53402740  1
  C  C128  1  0.01649165  0.32363315  0.62883351  1
  O  O129  1  0.30223129  0.49509018  0.67206722  1
  H  H130  1  0.02272865  0.37569781  0.53699318  1
  H  H131  1  0.98686107  0.27090903  0.72241846  1
  O  O132  1  0.85804639  0.45238504  0.53702282  1
  O  O133  1  0.61266433  0.25573756  0.73290280  1
  C  C134  1  0.76799579  0.49773591  0.54359725  1
  C  C135  1  0.96486116  0.31196219  0.68380915  1
  H  H136  1  0.77529591  0.42978338  0.64514050  1
  C  C137  1  0.97846106  0.37103631  0.57976041  1
  H  H138  1  0.60978030  0.26886283  0.61624483  1
  C  C139  1  0.88229165  0.35627184  0.69156714  1
  C  C140  1  0.84384385  0.40134117  0.64288723  1
  C  C141  1  0.89186810  0.41103628  0.58416600  1
  H  H142  1  0.71950715  0.45367842  0.56705018  1
  C  C143  1  0.19898995  0.35657461  0.83148735  1
  C  C144  1  0.10854231  0.34245848  0.85487854  1
  H  H145  1  0.23368943  0.41294073  0.84623641  1
  O  O146  1  0.06536336  0.40589632  0.88697409  1
  C  C147  1  0.24787302  0.30161334  0.79354607  1
  Cu  Cu148  1  0.43282830  0.43437235  0.83532051  1
  O  O149  1  0.39996714  0.43448854  0.97758093  1
  C  C150  1  0.06795989  0.26927294  0.83898551  1
  O  O151  1  0.36164853  0.39266671  0.77244172  1
  C  C152  1  0.47474067  0.45988211  0.96280877  1
  C  C153  1  0.33378489  0.32211011  0.76179156  1
  O  O154  1  0.75887838  0.38794917  0.75865244  1
  C  C155  1  0.82880379  0.34966842  0.75180201  1
  H  H156  1  0.81685050  0.38876835  0.97313193  1
  H  H157  1  0.81315053  0.48090377  0.93092036  1
  H  H158  1  0.92722356  0.39625857  0.87036519  1
  H  H159  1  0.97764851  0.33320954  0.93152688  1
  C  C160  1  0.84227187  0.45129917  0.97480696  1
  C  C161  1  0.94548948  0.45100443  0.97093525  1
  H  H162  1  0.65928569  0.45488752  0.95490211  1
  O  O163  1  0.86591671  0.30247559  0.79467086  1
  O  O164  1  0.50101549  0.46954357  0.90331349  1
  C  C165  1  0.97517902  0.39740865  0.91429955  1
  H  H166  1  0.18035489  0.62917926  0.08464317  1
  O  O167  1  0.33083336  0.64252111  0.12657387  1
  Cu  Cu168  1  0.35731830  0.57619241  0.19919661  1
  C  C169  1  0.35958476  0.63758557  0.06659681  1
  C  C170  1  0.19881442  0.61090748  0.03271680  1
  O  O171  1  0.43951014  0.64523143  0.05462313  1
  O  O172  1  0.04543942  0.72408700  0.22356043  1
  C  C173  1  0.29343324  0.61578521  0.01334000  1
  O  O174  1  0.46722444  0.51376365  0.20920492  1
  O  O175  1  0.03876701  0.57654154  0.00530046  1
  O  O176  1  0.25037987  0.50289193  0.18061334  1
  C  C177  1  0.00905696  0.74967300  0.05151330  1
  O  O178  1  0.97007847  0.73400573  0.10474536  1
  O  O179  1  0.60488872  0.55813607  0.23525731  1
  H  H180  1  0.72426877  0.51664148  0.14961667  1
  C  C181  1  0.55470923  0.52941112  0.19509523  1
  H  H182  1  0.57979144  0.72393317  0.08870717  1
  C  C183  1  0.67089881  0.51101471  0.11040087  1
  C  C184  1  0.57640851  0.50717177  0.12654874  1
  C  C185  1  0.31674185  0.55526608  0.33022591  1
  Cu  Cu186  1  0.12067151  0.56111055  0.30142735  1
  O  O187  1  0.34338455  0.59717415  0.28667956  1
  O  O188  1  0.23077165  0.53878924  0.34156053  1
  C  C189  1  0.01796480  0.67479191  0.26656188  1
  C  C190  1  0.38487721  0.51838959  0.37418336  1
  C  C191  1  0.47672734  0.51323471  0.35674515  1
  O  O192  1  0.01456298  0.60105529  0.25841693  1
  H  H193  1  0.49579637  0.53324305  0.31142559  1
  C  C194  1  0.00027305  0.70629632  0.33153092  1
  H  H195  1  0.28280021  0.50362932  0.44672570  1
  H  H196  1  0.86564456  0.53449365  0.43779541  1
  H  H197  1  0.60176086  0.58990517  0.45493117  1
  C  C198  1  0.80816369  0.57740183  0.44205546  1
  H  H199  1  0.77742409  0.58764539  0.39362884  1
  C  C200  1  0.73378750  0.53526118  0.48214303  1
  C  C201  1  0.91013381  0.69279293  0.42943070  1
  C  C202  1  0.93609802  0.66437796  0.36733778  1
  O  O203  1  0.84848593  0.65360185  0.46600024  1
  H  H204  1  0.90250295  0.61193444  0.34398045  1
  H  H205  1  0.52798982  0.67404600  0.48040582  1
  C  C206  1  0.65003915  0.58581792  0.49805398  1
  C  C207  1  0.35503198  0.60073184  0.61008704  1
  C  C208  1  0.44068748  0.56349027  0.60377640  1
  C  C209  1  0.28825891  0.56799034  0.65624902  1
  O  O210  1  0.21489619  0.60249023  0.67382492  1
  C  C211  1  0.33028911  0.66600647  0.57301608  1
  H  H212  1  0.26069667  0.69601913  0.57710515  1
  C  C213  1  0.39525940  0.69181887  0.52703724  1
  C  C214  1  0.48031948  0.65549589  0.51855183  1
  H  H215  1  0.45542398  0.51377375  0.63547318  1
  C  C216  1  0.50639158  0.58974644  0.55841789  1
  H  H217  1  0.78084471  0.54662431  0.57901878  1
  O  O218  1  0.59172862  0.55789206  0.55054252  1
  H  H219  1  0.67108264  0.64769581  0.51319426  1
  C  C220  1  0.16393705  0.56376116  0.92878349  1
  C  C221  1  0.32309011  0.58734767  0.95502816  1
  C  C222  1  0.25404358  0.56519934  0.90882492  1
  H  H223  1  0.10940701  0.54592640  0.89471748  1
  O  O224  1  0.21479658  0.54214177  0.79956954  1
  C  C225  1  0.27805585  0.54700897  0.84211956  1
  H  H226  1  0.39722604  0.58335384  0.94773767  1
  C  C227  1  0.13025883  0.58614381  0.99181679  1
  O  O228  1  0.36229561  0.54212203  0.82733013  1
  H  H229  1  0.07043791  0.69012082  0.92985604  1
  O  O230  1  0.36564528  0.72809557  0.77257850  1
  O  O231  1  0.06394037  0.65445696  0.82166181  1
  Cu  Cu232  1  0.14728388  0.62729622  0.75361082  1
  O  O233  1  0.20975469  0.73104887  0.76796619  1
  C  C234  1  0.28881186  0.73577817  0.79478936  1
  C  C235  1  0.97475788  0.67160204  0.82465506  1
  C  C236  1  0.99738959  0.71334290  0.93537610  1
  C  C237  1  0.97002416  0.53638142  0.95925058  1
  H  H238  1  0.98345597  0.54500392  0.90354607  1
  H  H239  1  0.91663089  0.57998548  0.97957822  1
  C  C240  1  0.93442802  0.70641018  0.88487548  1
  C  C241  1  0.83894287  0.72558724  0.88848330  1
  O  O242  1  0.92618791  0.67055321  0.77823146  1
  H  H243  1  0.79648093  0.71943543  0.84728402  1
  C  C244  1  0.96044814  0.74511635  0.99118725  1
  C  C245  1  0.31171165  0.89239111  0.18945572  1
  C  C246  1  0.39137951  0.85907076  0.15740601  1
  C  C247  1  0.22206566  0.90803429  0.16005589  1
  O  O248  1  0.15264576  0.93795595  0.19068241  1
  H  H249  1  0.38208851  0.84514567  0.10465177  1
  O  O250  1  0.21789318  0.89251207  0.10020445  1
  Cu  Cu251  1  0.10487294  0.89220523  0.05644883  1
  C  C252  1  0.47356343  0.84261692  0.18539576  1
  O  O253  1  0.09004949  0.77821513  0.04878686  1
  O  O254  1  0.00557907  0.95398233  0.09515864  1
  H  H255  1  0.46740653  0.77255574  0.08653850  1
  H  H256  1  0.49751310  0.93982872  0.06156568  1
  H  H257  1  0.60106281  0.92117525  0.11217161  1
  H  H258  1  0.84792990  0.78733501  0.04177563  1
  H  H259  1  0.70839270  0.76319384  0.05734687  1
  C  C260  1  0.57175198  0.91850559  0.06137654  1
  C  C261  1  0.92083095  0.93315763  0.10181218  1
  O  O262  1  0.60951665  0.98963154  0.02411759  1
  O  O263  1  0.55132581  0.80853008  0.15993594  1
  C  C264  1  0.54443070  0.78223572  0.09127797  1
  Cu  Cu265  1  0.96761674  0.79763702  0.18340841  1
  C  C266  1  0.67516034  0.80501621  0.02055674  1
  O  O267  1  0.89232671  0.87840810  0.14064941  1
  C  C268  1  0.76580031  0.96302895  0.06536844  1
  C  C269  1  0.86219537  0.97659565  0.05732871  1
  H  H270  1  0.72120562  0.85761566  0.00636519  1
  C  C271  1  0.58064790  0.83311027  0.03644437  1
  H  H272  1  0.74528201  0.92026314  0.10098852  1
  C  C273  1  0.40693471  0.91449752  0.35373406  1
  H  H274  1  0.10337965  0.80282534  0.32414102  1
  C  C275  1  0.39767823  0.89067222  0.28579333  1
  O  O276  1  0.13745357  0.90692351  0.41250659  1
  C  C277  1  0.07067078  0.87535621  0.44223169  1
  Cu  Cu278  1  0.26145064  0.89516452  0.45166374  1
  H  H279  1  0.25454764  0.93792805  0.28057394  1
  O  O280  1  0.33479547  0.93913651  0.38224095  1
  C  C281  1  0.31364397  0.91229339  0.25304929  1
  C  C282  1  0.47203765  0.85896126  0.25318420  1
  C  C283  1  0.04737635  0.77229700  0.35661767  1
  C  C284  1  0.02633196  0.80068006  0.41814141  1
  O  O285  1  0.48177944  0.90942675  0.38362252  1
  O  O286  1  0.41808052  0.76030607  0.43249982  1
  O  O287  1  0.29656885  0.79741037  0.49161626  1
  C  C288  1  0.36942117  0.75675365  0.48313200  1
  O  O289  1  0.04359590  0.89980735  0.49615694  1
  O  O290  1  0.97914215  0.86639366  0.25570142  1
  C  C291  1  0.72494071  0.99039282  0.37786792  1
  H  H292  1  0.53268089  0.84961413  0.28370657  1
  O  O293  1  0.70845142  0.77322161  0.37652859  1
  C  C294  1  0.87290852  0.95574153  0.30049003  1
  C  C295  1  0.82242578  0.88921812  0.32415793  1
  C  C296  1  0.95966725  0.75942072  0.45321530  1
  H  H297  1  0.83963236  0.82662703  0.31260648  1
  C  C298  1  0.95588160  0.93990607  0.26304023  1
  Cu  Cu299  1  0.52745690  0.81340961  0.42760219  1
  C  C300  1  0.74998198  0.91247250  0.36243707  1
  C  C301  1  0.69605213  0.84171780  0.39062902  1
  O  O302  1  0.63797200  0.86151175  0.43622402  1
  O  O303  1  0.26711400  0.97898066  0.51599769  1
  H  H304  1  0.93839689  0.78153338  0.50168068  1
  C  C305  1  0.19664064  0.82689677  0.86846111  1
  H  H306  1  0.13448012  0.82097858  0.83474422  1
  C  C307  1  0.27873139  0.78849562  0.85147242  1
  C  C308  1  0.35544055  0.79975964  0.89122197  1
  C  C309  1  0.19408786  0.88297893  0.91819148  1
  C  C310  1  0.35622257  0.84362568  0.94904480  1
  C  C311  1  0.27248942  0.88887691  0.95626994  1
  C  C312  1  0.11242098  0.93235153  0.93096171  1
  O  O313  1  0.04820348  0.94429533  0.88915833  1
  H  H314  1  0.42301592  0.77185932  0.87343086  1
  O  O315  1  0.11073829  0.96174678  0.98560215  1
  O  O316  1  0.42524728  0.85754887  0.98836432  1
  H  H317  1  0.27288017  0.93009769  0.99748790  1
  C  C318  1  0.51851450  0.82322580  0.97858958  1
  H  H319  1  0.54807212  0.85382766  0.93619544  1
  H  H320  1  0.51323962  0.75619727  0.96512402  1
  O  O321  1  0.70339966  0.76537621  0.95520859  1
  C  C322  1  0.79750792  0.75203321  0.94514247  1
  C  C323  1  0.86687042  0.76235682  0.99423546  1
