# generated using pymatgen
data_Zn5H6C20(NO2)8
_symmetry_space_group_name_H-M   'P 1'
_cell_length_a   16.93959800
_cell_length_b   11.82889980
_cell_length_c   17.40883327
_cell_angle_alpha   90.00000000
_cell_angle_beta   90.00000000
_cell_angle_gamma   90.00000000
_symmetry_Int_Tables_number   1
_chemical_formula_structural   Zn5H6C20(NO2)8
_chemical_formula_sum   'Zn20 H24 C80 N32 O64'
_cell_volume   3488.32643264
_cell_formula_units_Z   4
loop_
 _symmetry_equiv_pos_site_id
 _symmetry_equiv_pos_as_xyz
  1  'x, y, z'
loop_
 _atom_site_type_symbol
 _atom_site_label
 _atom_site_symmetry_multiplicity
 _atom_site_fract_x
 _atom_site_fract_y
 _atom_site_fract_z
 _atom_site_occupancy
  O  O0  1  0.08474325  0.14438441  0.10163250  1
  Zn  Zn1  1  0.29034990  0.30755199  0.16118788  1
  O  O2  1  0.32763434  0.31962863  0.04779910  1
  O  O3  1  0.17748193  0.41413179  0.19158530  1
  O  O4  1  0.21618539  0.17866565  0.11295576  1
  C  C5  1  0.14914684  0.19422788  0.08409567  1
  O  O6  1  0.43809275  0.19224559  0.15194569  1
  C  C7  1  0.14539362  0.28909324  0.02888410  1
  C  C8  1  0.48843068  0.26056259  0.16162520  1
  C  C9  1  0.29212181  0.38998639  0.00376869  1
  C  C10  1  0.04859098  0.06946667  0.29903410  1
  C  C11  1  0.19561324  0.35360255  0.47941327  1
  H  H12  1  0.22611326  0.20746016  0.40274155  1
  C  C13  1  0.11805448  0.38695945  0.43756520  1
  O  O14  1  0.12297535  0.42202136  0.37052471  1
  O  O15  1  0.34342569  0.32754459  0.27993006  1
  C  C16  1  0.38627182  0.40815371  0.29440611  1
  C  C17  1  0.24940166  0.26115311  0.44582695  1
  O  O18  1  0.05661809  0.37156248  0.47190025  1
  O  O19  1  0.11260875  0.10303620  0.29079867  1
  O  O20  1  0.27191599  0.02912381  0.43056972  1
  Zn  Zn21  1  0.08451886  0.36677569  0.25775218  1
  C  C22  1  0.45718655  0.43501264  0.25284743  1
  O  O23  1  0.35601768  0.48535928  0.34946526  1
  C  C24  1  0.20893048  0.25144761  0.53498919  1
  C  C25  1  0.15030457  0.16362041  0.58356744  1
  N  N26  1  0.39617572  0.05510294  0.65542693  1
  O  O27  1  0.07928728  0.14278834  0.56167403  1
  H  H28  1  0.49181180  0.27676228  0.52854631  1
  O  O29  1  0.17999318  0.12291985  0.64202353  1
  C  C30  1  0.45145720  0.13541350  0.68027090  1
  Zn  Zn31  1  0.32182869  0.04727706  0.54530439  1
  O  O32  1  0.46368863  0.20800113  0.55186230  1
  C  C33  1  0.49314891  0.20756594  0.62608638  1
  N  N34  1  0.28019571  0.21658074  0.51491637  1
  Zn  Zn35  1  0.34831530  0.46221861  0.50421383  1
  N  N36  1  0.23597539  0.44316724  0.50366369  1
  O  O37  1  0.47405655  0.40729447  0.50510472  1
  C  C38  1  0.08847717  0.38922091  0.94390278  1
  H  H39  1  0.04483141  0.43002259  0.90292688  1
  C  C40  1  0.46173242  0.11723745  0.76047375  1
  N  N41  1  0.16084357  0.43188673  0.94443993  1
  N  N42  1  0.41737629  0.02689043  0.78448596  1
  O  O43  1  0.32681482  0.46277178  0.96862220  1
  N  N44  1  0.07277767  0.29911819  0.99499524  1
  C  C45  1  0.19949599  0.36780822  0.99973169  1
  Zn  Zn46  1  0.32112531  0.77261686  0.19416176  1
  N  N47  1  0.30214323  0.76172043  0.06957545  1
  C  C48  1  0.41520032  0.87294392  0.04538905  1
  H  H49  1  0.20069332  0.65127603  0.06488070  1
  C  C50  1  0.34653001  0.80628661  0.01046256  1
  C  C51  1  0.08070048  0.63389036  0.20770127  1
  O  O52  1  0.42101664  0.88457267  0.11545569  1
  C  C53  1  0.16353141  0.61720495  0.19131090  1
  N  N54  1  0.19698839  0.72595325  0.18409067  1
  C  C55  1  0.24578969  0.70251897  0.03418198  1
  C  C56  1  0.13216887  0.79642463  0.19931196  1
  C  C57  1  0.20963406  0.51540323  0.18011295  1
  N  N58  1  0.06524740  0.74610360  0.21726215  1
  O  O59  1  0.28021808  0.51101646  0.16078321  1
  H  H60  1  0.14211879  0.88746433  0.20519118  1
  O  O61  1  0.46441969  0.91551724  0.00022059  1
  C  C62  1  0.23185965  0.80223561  0.44890865  1
  C  C63  1  0.23787217  0.67338856  0.36554713  1
  O  O64  1  0.03093182  0.93451114  0.31501865  1
  C  C65  1  0.26392128  0.84920602  0.38162204  1
  H  H66  1  0.23660074  0.58663058  0.34050929  1
  N  N67  1  0.27404041  0.76389599  0.32917003  1
  C  C68  1  0.41303159  0.70182446  0.43279043  1
  H  H69  1  0.35620461  0.74091454  0.42004011  1
  O  O70  1  0.45785612  0.94610265  0.45590944  1
  H  H71  1  0.08662452  0.92134705  0.32050404  1
  N  N72  1  0.21595298  0.69215423  0.43893009  1
  Zn  Zn73  1  0.46774930  0.90242475  0.32812969  1
  N  N74  1  0.42659350  0.59660651  0.47030700  1
  C  C75  1  0.29768121  0.96440723  0.37791584  1
  N  N76  1  0.49339069  0.52985925  0.27256335  1
  N  N77  1  0.47390783  0.74643511  0.39695327  1
  O  O78  1  0.34269200  0.99858491  0.32608453  1
  H  H79  1  0.40314229  0.54134384  0.34586808  1
  H  H80  1  0.42904873  0.69094812  0.26025065  1
  O  O81  1  0.41417467  0.76720204  0.25965243  1
  C  C82  1  0.23281575  0.83164362  0.54264939  1
  N  N83  1  0.15427127  0.58370126  0.64072814  1
  C  C84  1  0.07530816  0.61286819  0.66738941  1
  Zn  Zn85  1  0.19097447  0.58020248  0.52688095  1
  H  H86  1  0.34456736  0.91178488  0.71577555  1
  O  O87  1  0.17547696  0.81033376  0.58064191  1
  C  C88  1  0.08122694  0.60604502  0.74878628  1
  C  C89  1  0.19561772  0.55944390  0.70599612  1
  H  H90  1  0.25806245  0.54096001  0.70092454  1
  O  O91  1  0.29437730  0.86445451  0.57523598  1
  C  C92  1  0.00634410  0.63814273  0.61844600  1
  H  H93  1  0.47582117  0.50402406  0.63196305  1
  O  O94  1  0.49525610  0.69551766  0.63428409  1
  O  O95  1  0.48381499  0.50534618  0.68664124  1
  C  C96  1  0.37940368  0.99210363  0.72231700  1
  Zn  Zn97  1  0.20357738  0.56454999  0.87999862  1
  N  N98  1  0.25168919  0.69042990  0.95480271  1
  O  O99  1  0.40699143  0.79333056  0.83668376  1
  O  O100  1  0.29778876  0.70474715  0.81009213  1
  Zn  Zn101  1  0.44258923  0.94758985  0.88643397  1
  C  C102  1  0.31389756  0.75898564  0.93998415  1
  C  C103  1  0.34013982  0.75699400  0.85355701  1
  O  O104  1  0.05160632  0.66508340  0.88329061  1
  N  N105  1  0.15379767  0.57520449  0.77039211  1
  C  C106  1  0.02599749  0.64267247  0.82095996  1
  H  H107  1  0.01820207  0.89934331  0.76022669  1
  Zn  Zn108  1  0.96601352  0.17971702  0.03981171  1
  Zn  Zn109  1  0.58527809  0.25093396  0.08781259  1
  O  O110  1  0.75543355  0.22647407  0.16459280  1
  N  N111  1  0.57320293  0.44212485  0.18877121  1
  C  C112  1  0.75601065  0.08070047  0.07237227  1
  O  O113  1  0.87098302  0.15778816  0.12273182  1
  N  N114  1  0.67554312  0.08481038  0.06299387  1
  C  C115  1  0.79505089  0.16353177  0.12287626  1
  O  O116  1  0.93137810  0.00614945  0.02285033  1
  C  C117  1  0.50562120  0.37366008  0.19549477  1
  O  O118  1  0.99355652  0.46837107  0.21598146  1
  O  O119  1  0.64478799  0.32031193  0.00229600  1
  H  H120  1  0.87838210  0.36840593  0.26789067  1
  C  C121  1  0.52832726  0.46543290  0.46872902  1
  N  N122  1  0.85325012  0.20124567  0.29648115  1
  O  O123  1  0.50693859  0.05414939  0.28137936  1
  C  C124  1  0.89853394  0.10959648  0.30374878  1
  C  C125  1  0.56959311  0.09392225  0.29872490  1
  N  N126  1  0.67145133  0.15575468  0.38630454  1
  C  C127  1  0.59907305  0.09927361  0.38453731  1
  C  C128  1  0.90477746  0.28695423  0.28635304  1
  C  C129  1  0.69052350  0.14121433  0.46111584  1
  C  C130  1  0.57536610  0.05590976  0.45815086  1
  O  O131  1  0.79215803  0.41507239  0.43907194  1
  N  N132  1  0.98443610  0.25812654  0.27795314  1
  O  O133  1  0.59638234  0.42758977  0.45982614  1
  Zn  Zn134  1  0.73350651  0.20318957  0.28808387  1
  C  C135  1  0.97751635  0.14049895  0.29585691  1
  H  H136  1  0.74735239  0.17027469  0.48688938  1
  C  C137  1  0.82823657  0.37309868  0.49362231  1
  O  O138  1  0.87941987  0.30148061  0.48705702  1
  O  O139  1  0.61271794  0.13608940  0.25061742  1
  C  C140  1  0.81276825  0.42259259  0.57527322  1
  O  O141  1  0.93924560  0.26727403  0.66288805  1
  Zn  Zn142  1  0.99063774  0.27184287  0.54906478  1
  N  N143  1  0.73119262  0.05383444  0.68570086  1
  C  C144  1  0.89889434  0.34550232  0.69523576  1
  O  O145  1  0.54929574  0.26438304  0.64683333  1
  C  C146  1  0.83713569  0.41437575  0.65666119  1
  N  N147  1  0.79293846  0.48951452  0.69424561  1
  N  N148  1  0.63749074  0.08312225  0.50518408  1
  C  C149  1  0.74545346  0.13942583  0.73468592  1
  H  H150  1  0.70196000  0.20809023  0.74278871  1
  N  N151  1  0.75070849  0.49280703  0.57142864  1
  Zn  Zn152  1  0.63419332  0.01036312  0.62006042  1
  C  C153  1  0.85524112  0.03707996  0.74448627  1
  C  C154  1  0.74673700  0.45062037  0.96647526  1
  O  O155  1  0.98083616  0.05499067  0.80625966  1
  O  O156  1  0.74431302  0.25850414  0.93647304  1
  Zn  Zn157  1  0.85894561  0.26353423  0.86018410  1
  H  H158  1  0.89831928  0.34676677  0.96533786  1
  O  O159  1  0.92810291  0.28424573  0.95000790  1
  N  N160  1  0.81439739  0.13457183  0.77460670  1
  N  N161  1  0.81593663  0.45509266  0.92581411  1
  C  C162  1  0.71114731  0.33663989  0.97135996  1
  O  O163  1  0.56556079  0.24245005  0.81588114  1
  O  O164  1  0.90694988  0.36481061  0.76549120  1
  C  C165  1  0.93517951  0.00760764  0.76656985  1
  C  C166  1  0.51356824  0.16906927  0.82845460  1
  O  O167  1  0.50300896  0.13388647  0.89537242  1
  Zn  Zn168  1  0.55603380  0.38481833  0.75140832  1
  O  O169  1  0.59863404  0.54195368  0.04848116  1
  O  O170  1  0.63532444  0.72404692  0.02776853  1
  H  H171  1  0.69349026  0.74479699  0.00888032  1
  C  C172  1  0.64500556  0.60500394  0.02287172  1
  C  C173  1  0.56084469  0.53297756  0.23241164  1
  C  C174  1  0.78871348  0.99322578  0.02602312  1
  H  H175  1  0.60105331  0.60260373  0.23424558  1
  C  C176  1  0.99866113  0.57189233  0.21657804  1
  C  C177  1  0.66378764  0.99589218  0.01253075  1
  O  O178  1  0.93854849  0.63388897  0.21921153  1
  C  C179  1  0.61466987  0.69707754  0.36086036  1
  O  O180  1  0.67130189  0.62370470  0.36646364  1
  Zn  Zn181  1  0.95129073  0.80351894  0.25497588  1
  C  C182  1  0.84538159  0.98972410  0.31072848  1
  O  O183  1  0.62300296  0.77854418  0.32104292  1
  C  C184  1  0.53312369  0.67177682  0.40590791  1
  O  O185  1  0.85269760  0.91309317  0.26103404  1
  C  C186  1  0.50481465  0.57863783  0.44622226  1
  Zn  Zn187  1  0.69812446  0.53900851  0.46272351  1
  O  O188  1  0.80270482  0.97776961  0.36573354  1
  C  C189  1  0.51614164  0.98012834  0.49594417  1
  O  O190  1  0.76103406  0.88144288  0.58373882  1
  Zn  Zn191  1  0.92415044  0.71319636  0.69303474  1
  O  O192  1  0.98906126  0.62902349  0.55329447  1
  O  O193  1  0.52490007  0.94680549  0.56558425  1
  O  O194  1  0.97023727  0.89728262  0.72530770  1
  O  O195  1  0.80851180  0.77956630  0.67963339  1
  C  C196  1  0.78798529  0.87209820  0.64645301  1
  H  H197  1  0.69369971  0.59787600  0.65557647  1
  O  O198  1  0.58454499  0.92626645  0.73067342  1
  C  C199  1  0.79515864  0.98719144  0.69808344  1
  C  C200  1  0.74103169  0.53436428  0.64217336  1
  C  C201  1  0.51318304  0.63758348  0.68587244  1
  O  O202  1  0.95326180  0.65764419  0.80470209  1
  N  N203  1  0.65621319  0.70324107  0.84525619  1
  C  C204  1  0.83293398  0.56703450  0.92760073  1
  O  O205  1  0.67163892  0.91080228  0.82275016  1
  H  H206  1  0.87353287  0.60441806  0.88520447  1
  O  O207  1  0.87802177  0.86408672  0.96291099  1
  C  C208  1  0.64538469  0.59271055  0.84485058  1
  C  C209  1  0.61562946  0.74094903  0.78480053  1
  Zn  Zn210  1  0.74002875  0.80063734  0.90521043  1
  N  N211  1  0.77820670  0.64087563  0.95999345  1
  C  C212  1  0.62211615  0.86978265  0.77838801  1
  N  N213  1  0.58873103  0.55702735  0.79204397  1
  H  H214  1  0.67540061  0.52119267  0.87523101  1
  N  N215  1  0.72896561  0.94033287  0.99203959  1
  C  C216  1  0.72562932  0.56244553  0.99112847  1
  H  H217  1  0.61069857  0.98506574  0.97470703  1
  C  C218  1  0.87555915  0.94746291  0.99915664  1
  C  C219  1  0.56475430  0.65284663  0.75161830  1
