# generated using pymatgen
data_Zn2H3(C3O2)3
_symmetry_space_group_name_H-M   'P 1'
_cell_length_a   7.77337646
_cell_length_b   10.23165090
_cell_length_c   16.30579061
_cell_angle_alpha   90.00000000
_cell_angle_beta   90.00000000
_cell_angle_gamma   90.00000000
_symmetry_Int_Tables_number   1
_chemical_formula_structural   Zn2H3(C3O2)3
_chemical_formula_sum   'Zn8 H12 C36 O24'
_cell_volume   1296.87248237
_cell_formula_units_Z   4
loop_
 _symmetry_equiv_pos_site_id
 _symmetry_equiv_pos_as_xyz
  1  'x, y, z'
loop_
 _atom_site_type_symbol
 _atom_site_label
 _atom_site_symmetry_multiplicity
 _atom_site_fract_x
 _atom_site_fract_y
 _atom_site_fract_z
 _atom_site_occupancy
  C  C0  1  0.19331677  0.08483486  0.14945058  1
  O  O1  1  0.25641413  0.30757311  0.15298127  1
  C  C2  1  0.28030768  0.20071140  0.18586985  1
  C  C3  1  0.09656303  0.10014027  0.07918259  1
  H  H4  1  0.07703928  0.19877107  0.05021089  1
  Zn  Zn5  1  0.04380927  0.43236096  0.17152567  1
  O  O6  1  0.25021507  0.11417005  0.44443104  1
  Zn  Zn7  1  0.25379371  0.28298499  0.36624023  1
  O  O8  1  0.30848742  0.43146546  0.45417049  1
  C  C9  1  0.35949002  0.02426295  0.45583140  1
  O  O10  1  0.02952139  0.37598630  0.29763715  1
  O  O11  1  0.35599661  0.19206861  0.25706271  1
  O  O12  1  0.42654872  0.38555767  0.65368507  1
  H  H13  1  0.44442896  0.26966510  0.50179209  1
  O  O14  1  0.31809500  0.07274921  0.81191485  1
  C  C15  1  0.38912178  0.07344695  0.87798485  1
  H  H16  1  0.33647636  0.34312867  0.83983455  1
  C  C17  1  0.41503794  0.32443389  0.89484985  1
  C  C18  1  0.44609997  0.19544043  0.92360512  1
  C  C19  1  0.49524735  0.42632177  0.93021632  1
  C  C20  1  0.04442268  0.86653329  0.07425343  1
  C  C21  1  0.14291773  0.85295988  0.14676557  1
  C  C22  1  0.15269408  0.71775136  0.17913419  1
  O  O23  1  0.07410991  0.62986621  0.13873643  1
  C  C24  1  0.23147185  0.95943077  0.18018701  1
  H  H25  1  0.30855517  0.94594209  0.23646336  1
  C  C26  1  0.02035514  0.99011671  0.04313311  1
  O  O27  1  0.23503953  0.68927246  0.24216774  1
  Zn  Zn28  1  0.17966901  0.79883451  0.35328591  1
  O  O29  1  0.21800747  0.62675791  0.43477864  1
  O  O30  1  0.32110621  0.90825932  0.44242924  1
  C  C31  1  0.33863586  0.54630685  0.42991402  1
  H  H32  1  0.49358859  0.78462576  0.38680259  1
  O  O33  1  0.46964971  0.76680573  0.66786427  1
  H  H34  1  0.47844838  0.76966419  0.60902379  1
  Zn  Zn35  1  0.43933574  0.57886871  0.69910165  1
  O  O36  1  0.38738906  0.58147140  0.83073763  1
  O  O37  1  0.43158644  0.96656471  0.91387757  1
  C  C38  1  0.46891278  0.56639120  0.89720636  1
  O  O39  1  0.77600106  0.37944075  0.14076053  1
  C  C40  1  0.71423346  0.27680236  0.11157505  1
  O  O41  1  0.72273039  0.16672599  0.14742405  1
  C  C42  1  0.61607994  0.29208101  0.03363623  1
  H  H43  1  0.57839916  0.08430920  0.01455287  1
  C  C44  1  0.59941977  0.41619611  0.00162679  1
  O  O45  1  0.81499481  0.24440396  0.33529795  1
  C  C46  1  0.87625214  0.35425480  0.32740011  1
  H  H47  1  0.56317792  0.35469293  0.39451310  1
  C  C48  1  0.60429520  0.45158726  0.37449131  1
  C  C49  1  0.77265837  0.47190421  0.34284438  1
  C  C50  1  0.52684848  0.06145958  0.49224284  1
  Zn  Zn51  1  0.64135203  0.10913953  0.26307834  1
  O  O52  1  0.69452269  0.42212698  0.66454909  1
  C  C53  1  0.73837010  0.11611127  0.64304802  1
  C  C54  1  0.58111498  0.34376442  0.64714181  1
  C  C55  1  0.64057237  0.21946024  0.60360389  1
  Zn  Zn56  1  0.79192769  0.10483842  0.51553997  1
  C  C57  1  0.55010570  0.19942028  0.52026728  1
  Zn  Zn58  1  0.50194458  0.06869881  0.69808892  1
  O  O59  1  0.86669469  0.09021419  0.93134683  1
  C  C60  1  0.54692844  0.18181299  0.99380320  1
  H  H61  1  0.66547083  0.50114828  0.02984021  1
  H  H62  1  0.97304886  0.78118671  0.04708974  1
  C  C63  1  0.79550706  0.83481449  0.31235871  1
  C  C64  1  0.72855812  0.70028000  0.33180051  1
  C  C65  1  0.83830106  0.59428178  0.32007123  1
  H  H66  1  0.96677115  0.61214135  0.29931197  1
  O  O67  1  0.94896881  0.86544216  0.30288954  1
  O  O68  1  0.68994943  0.92576872  0.32108303  1
  C  C69  1  0.56951124  0.69382454  0.37117893  1
  C  C70  1  0.51143062  0.56876342  0.38920380  1
  C  C71  1  0.70417305  0.97528158  0.61995271  1
  C  C72  1  0.64324120  0.87290456  0.67958629  1
  C  C73  1  0.62295872  0.95422618  0.53143542  1
  H  H74  1  0.58064858  0.85210639  0.51525652  1
  O  O75  1  0.70261251  0.85493700  0.74652543  1
  Zn  Zn76  1  0.63008847  0.83808625  0.87394815  1
  O  O77  1  0.83130869  0.88385206  0.94567125  1
  C  C78  1  0.89890468  0.99375420  0.96825282  1
  O  O79  1  0.56941170  0.65025761  0.92122827  1
