# generated using pymatgen
data_Zn3H12C14(N8Cl)2
_symmetry_space_group_name_H-M   'P 1'
_cell_length_a   13.60614162
_cell_length_b   11.78042709
_cell_length_c   16.95222472
_cell_angle_alpha   90.00000000
_cell_angle_beta   90.00000000
_cell_angle_gamma   90.00000000
_symmetry_Int_Tables_number   1
_chemical_formula_structural   Zn3H12C14(N8Cl)2
_chemical_formula_sum   'Zn12 H48 C56 N64 Cl8'
_cell_volume   2717.20699141
_cell_formula_units_Z   4
loop_
 _symmetry_equiv_pos_site_id
 _symmetry_equiv_pos_as_xyz
  1  'x, y, z'
loop_
 _atom_site_type_symbol
 _atom_site_label
 _atom_site_symmetry_multiplicity
 _atom_site_fract_x
 _atom_site_fract_y
 _atom_site_fract_z
 _atom_site_occupancy
  C  C0  1  0.21052432  0.25536929  0.10755939  1
  Zn  Zn1  1  0.38118637  0.42272399  0.10294043  1
  N  N2  1  0.25662481  0.35634919  0.09615612  1
  C  C3  1  0.16673038  0.36329447  0.08477497  1
  N  N4  1  0.45336513  0.26243905  0.13285529  1
  C  C5  1  0.23481987  0.14936414  0.14909514  1
  H  H6  1  0.17391802  0.08767068  0.15243833  1
  C  C7  1  0.41525494  0.18792453  0.19076911  1
  N  N8  1  0.44306506  0.20967938  0.02918976  1
  C  C9  1  0.46546767  0.10418385  0.01163658  1
  C  C10  1  0.32227411  0.12573304  0.19129541  1
  H  H11  1  0.03218337  0.35686251  0.20515276  1
  H  H12  1  0.31952179  0.04797528  0.22734555  1
  N  N13  1  0.48826017  0.15677444  0.23747510  1
  Cl  Cl14  1  0.07874553  0.48528428  0.06332988  1
  C  C15  1  0.47598498  0.00604492  0.07612155  1
  Cl  Cl16  1  0.16077049  0.26582442  0.34283384  1
  N  N17  1  0.39515079  0.33454639  0.38635628  1
  N  N18  1  0.39225793  0.23247246  0.38610233  1
  H  H19  1  0.26424876  0.41868024  0.31339740  1
  C  C20  1  0.21225381  0.24082203  0.46128624  1
  Zn  Zn21  1  0.06190388  0.40370038  0.49748621  1
  Zn  Zn22  1  0.47551718  0.08117382  0.34570295  1
  N  N23  1  0.00621796  0.42835951  0.39155589  1
  C  C24  1  0.21731631  0.48399565  0.28284665  1
  H  H25  1  0.13765455  0.47962596  0.28882216  1
  H  H26  1  0.26869672  0.19337084  0.49692292  1
  H  H27  1  0.45380771  0.26596079  0.67335212  1
  H  H28  1  0.28352445  0.23580952  0.67326135  1
  C  C29  1  0.30738194  0.18286734  0.72301320  1
  C  C30  1  0.34116924  0.07310438  0.70613986  1
  Cl  Cl31  1  0.35918375  0.40727460  0.73401478  1
  N  N32  1  0.17482464  0.30183117  0.50663478  1
  C  C33  1  0.32329087  0.02837841  0.63366741  1
  H  H34  1  0.29137582  0.07735128  0.58465334  1
  H  H35  1  0.42198125  0.43175142  0.87649368  1
  N  N36  1  0.44645316  0.28938737  0.94101488  1
  N  N37  1  0.20737362  0.09605510  0.94527139  1
  N  N38  1  0.16631714  0.14200929  0.89378959  1
  N  N39  1  0.47194171  0.22166416  0.89108672  1
  H  H40  1  0.31423059  0.21945147  0.78372253  1
  N  N41  1  0.48776166  0.08680960  0.93680758  1
  N  N42  1  0.30086351  0.62697273  0.01388496  1
  C  C43  1  0.23002045  0.66692392  0.19612924  1
  N  N44  1  0.43097771  0.52371437  0.18189069  1
  H  H45  1  0.03146533  0.60350665  0.19909996  1
  H  H46  1  0.39462372  0.86734585  0.13137800  1
  C  C47  1  0.39068584  0.94289839  0.09094541  1
  Cl  Cl48  1  0.22254953  0.89464942  0.17318406  1
  H  H49  1  0.31754854  0.95809831  0.05715948  1
  N  N50  1  0.43778725  0.52719811  0.02585619  1
  H  H51  1  0.28422321  0.70889519  0.15420639  1
  C  C52  1  0.37618160  0.55832590  0.24329867  1
  N  N53  1  0.12103642  0.76408339  0.02820786  1
  C  C54  1  0.26175280  0.56926848  0.23747905  1
  H  H55  1  0.14962915  0.69390910  0.19054653  1
  H  H56  1  0.05598282  0.64000044  0.41040717  1
  N  N57  1  0.42389809  0.57992461  0.30744477  1
  N  N58  1  0.48641604  0.90287378  0.34042656  1
  N  N59  1  0.01769924  0.62226344  0.36279272  1
  N  N60  1  0.05099389  0.75393117  0.55735587  1
  N  N61  1  0.07546559  0.57204783  0.52557760  1
  H  H62  1  0.27628657  0.58843712  0.74235200  1
  C  C63  1  0.38907390  0.70286842  0.70892026  1
  N  N64  1  0.18294599  0.64387929  0.51362244  1
  H  H65  1  0.22943815  0.73228254  0.73373782  1
  C  C66  1  0.43503018  0.75620275  0.64740654  1
  N  N67  1  0.16993285  0.74499019  0.53030674  1
  H  H68  1  0.33085667  0.93301445  0.62750526  1
  N  N69  1  0.47755691  0.67989705  0.68524643  1
  C  C70  1  0.01049309  0.65237284  0.54901198  1
  Cl  Cl71  1  0.46975123  0.85935277  0.55850571  1
  H  H72  1  0.47523025  0.75156425  0.80837174  1
  C  C73  1  0.32033003  0.69729287  0.84475891  1
  C  C74  1  0.39676400  0.61299722  0.88301327  1
  C  C75  1  0.42789335  0.73474241  0.86043615  1
  C  C76  1  0.37950893  0.59247891  0.97745454  1
  H  H77  1  0.43581156  0.80136016  0.90906306  1
  Zn  Zn78  1  0.01705333  0.77579825  0.86937881  1
  N  N79  1  0.04892433  0.79476216  0.99273150  1
  Zn  Zn80  1  0.18285253  0.96915748  0.84163972  1
  N  N81  1  0.21056401  0.70214702  0.96172664  1
  C  C82  1  0.22478255  0.72896795  0.88848411  1
  N  N83  1  0.15993968  0.80011960  0.86167387  1
  N  N84  1  0.34113515  0.95358705  0.83749025  1
  C  C85  1  0.39037031  0.99571453  0.77985551  1
  C  C86  1  0.42032803  0.51459342  0.84415901  1
  H  H87  1  0.47402858  0.52545708  0.79604637  1
  N  N88  1  0.48866373  0.99454368  0.79435797  1
  N  N89  1  0.00122661  0.87109851  0.76435659  1
  C  C90  1  0.29486860  0.67961131  0.75277108  1
  N  N91  1  0.06616652  0.94135495  0.76152932  1
  N  N92  1  0.58262710  0.26879641  0.14990923  1
  C  C93  1  0.87782632  0.34229602  0.16726009  1
  C  C94  1  0.89807138  0.24660042  0.12168382  1
  N  N95  1  0.60176799  0.21349292  0.20865609  1
  H  H96  1  0.63011681  0.05113992  0.09148668  1
  N  N97  1  0.88111866  0.24373260  0.04426621  1
  C  C98  1  0.79303623  0.42329299  0.14552784  1
  H  H99  1  0.72970302  0.35980597  0.13239814  1
  Cl  Cl100  1  0.97390463  0.10935355  0.11715499  1
  C  C101  1  0.95579247  0.36890056  0.22959732  1
  H  H102  1  0.80322085  0.47556909  0.08764935  1
  C  C103  1  0.65013305  0.49643473  0.23807973  1
  Zn  Zn104  1  0.50067999  0.45118232  0.35543444  1
  N  N105  1  0.61889727  0.42676008  0.27979659  1
  H  H106  1  0.79714271  0.41501035  0.32918354  1
  N  N107  1  0.55032666  0.10954316  0.45453854  1
  Cl  Cl108  1  0.81885350  0.31185926  0.43803969  1
  H  H109  1  0.94182254  0.30954166  0.27911769  1
  N  N110  1  0.63770023  0.10307827  0.46934231  1
  C  C111  1  0.92681541  0.49272310  0.26297269  1
  C  C112  1  0.82024023  0.49407146  0.29218446  1
  N  N113  1  0.57801759  0.18376831  0.64341501  1
  H  H114  1  0.71801275  0.42877335  0.57458492  1
  N  N115  1  0.91092649  0.21721119  0.67822023  1
  N  N116  1  0.83304116  0.22074399  0.59337276  1
  N  N117  1  0.96744286  0.31647615  0.56275906  1
  C  C118  1  0.87783669  0.28298606  0.53738039  1
  Zn  Zn119  1  0.70776127  0.13083123  0.58102849  1
  C  C120  1  0.51805675  0.25431635  0.63100416  1
  N  N121  1  0.98662405  0.26461202  0.66011936  1
  H  H122  1  0.90534612  0.47618580  0.61867198  1
  N  N123  1  0.70946183  0.35970537  0.72831279  1
  Zn  Zn124  1  0.60054148  0.07098704  0.73159608  1
  C  C125  1  0.76148584  0.45517268  0.73547923  1
  H  H126  1  0.52065935  0.29926375  0.57194236  1
  Zn  Zn127  1  0.78197077  0.39914016  0.90798546  1
  N  N128  1  0.66448644  0.18621198  0.81382128  1
  N  N129  1  0.70161201  0.28248569  0.81648452  1
  N  N130  1  0.85216217  0.27848837  0.97890890  1
  N  N131  1  0.81047201  0.47529888  0.80147913  1
  H  H132  1  0.57511298  0.95300188  0.16894586  1
  Cl  Cl133  1  0.72423633  0.87305448  0.12742597  1
  C  C134  1  0.90617379  0.75076821  0.12128248  1
  Zn  Zn135  1  0.55003001  0.58836011  0.10723132  1
  C  C136  1  0.57189415  0.98883954  0.10524821  1
  N  N137  1  0.59358612  0.58754687  0.22144756  1
  C  C138  1  0.76629519  0.63334362  0.17642149  1
  H  H139  1  0.73161856  0.70242839  0.21076648  1
  H  H140  1  0.98012664  0.78189244  0.11721722  1
  C  C141  1  0.95145127  0.58168463  0.20245192  1
  H  H142  1  0.85796024  0.79182433  0.07865309  1
  C  C143  1  0.88100355  0.65407314  0.16508914  1
  H  H144  1  0.73366317  0.64699597  0.11767641  1
  N  N145  1  0.55584203  0.76105648  0.04814757  1
  C  C146  1  0.76073037  0.50659651  0.21170314  1
  N  N147  1  0.63834540  0.50202769  0.02023336  1
  N  N148  1  0.74207183  0.76208421  0.39734004  1
  H  H149  1  0.81136251  0.57665829  0.32720919  1
  N  N150  1  0.75506924  0.82429060  0.33953900  1
  H  H151  1  0.84739004  0.65492492  0.44412816  1
  H  H152  1  0.81305194  0.88094302  0.35375760  1
  C  C153  1  0.99200987  0.51598045  0.34427932  1
  N  N154  1  0.65308055  0.65810948  0.38360555  1
  Zn  Zn155  1  0.53818827  0.68292878  0.30255044  1
  C  C156  1  0.65137571  0.59074761  0.44968114  1
  N  N157  1  0.57488728  0.52080557  0.44847185  1
  N  N158  1  0.52023675  0.85933038  0.28203770  1
  H  H159  1  0.85155601  0.51573743  0.47899710  1
  C  C160  1  0.83439745  0.60179743  0.49699847  1
  C  C161  1  0.73444112  0.67110873  0.69768219  1
  N  N162  1  0.68731336  0.92578865  0.72543536  1
  C  C163  1  0.72141633  0.59935192  0.52335928  1
  H  H164  1  0.62067490  0.51143887  0.61042163  1
  H  H165  1  0.61158859  0.71311538  0.58057375  1
  H  H166  1  0.85984910  0.82028440  0.54541982  1
  C  C167  1  0.72027603  0.88690008  0.65606699  1
  C  C168  1  0.68712099  0.71466894  0.55968807  1
  H  H169  1  0.91426065  0.58201552  0.69204407  1
  C  C170  1  0.75258252  0.76161134  0.62934909  1
  C  C171  1  0.85911001  0.76376082  0.59653467  1
  H  H172  1  0.91338777  0.79996504  0.63793263  1
  C  C173  1  0.89274934  0.64523657  0.56982676  1
  H  H174  1  0.65499840  0.67268663  0.71192870  1
  N  N175  1  0.72268691  0.95771882  0.59660791  1
  C  C176  1  0.76525627  0.55262255  0.66584216  1
  C  C177  1  0.87716443  0.55862075  0.63894638  1
  H  H178  1  0.77886777  0.69438157  0.74951680  1
  C  C179  1  0.70004034  0.51812001  0.59324972  1
  H  H180  1  0.68329504  0.78372132  0.50965606  1
  N  N181  1  0.68693003  0.87127393  0.86323761  1
  N  N182  1  0.73964447  0.86282810  0.80415663  1
  N  N183  1  0.93009403  0.62052374  0.87091031  1
  N  N184  1  0.87812896  0.60860829  0.81395329  1
  Zn  Zn185  1  0.55396473  0.94928079  0.89458609  1
  N  N186  1  0.55205173  0.79728442  0.98129609  1
  N  N187  1  0.72358160  0.50851956  0.99892713  1
