# generated using pymatgen
data_Zn3H29C55O14
_symmetry_space_group_name_H-M   'P 1'
_cell_length_a   16.45688098
_cell_length_b   17.15477274
_cell_length_c   19.11050962
_cell_angle_alpha   90.00000000
_cell_angle_beta   90.00000000
_cell_angle_gamma   90.00000000
_symmetry_Int_Tables_number   1
_chemical_formula_structural   Zn3H29C55O14
_chemical_formula_sum   'Zn12 H116 C220 O56'
_cell_volume   5395.16542992
_cell_formula_units_Z   4
loop_
 _symmetry_equiv_pos_site_id
 _symmetry_equiv_pos_as_xyz
  1  'x, y, z'
loop_
 _atom_site_type_symbol
 _atom_site_label
 _atom_site_symmetry_multiplicity
 _atom_site_fract_x
 _atom_site_fract_y
 _atom_site_fract_z
 _atom_site_occupancy
  O  O0  1  0.14612078  0.14804818  0.18630658  1
  H  H1  1  0.16269172  0.24112551  0.08113112  1
  C  C2  1  0.18494903  0.10623392  0.14751403  1
  C  C3  1  0.20799491  0.13089565  0.07138647  1
  C  C4  1  0.40909073  0.23209534  0.19239988  1
  O  O5  1  0.00117539  0.01658997  0.20866427  1
  H  H6  1  0.43753858  0.06247655  0.06429290  1
  C  C7  1  0.19108526  0.20313757  0.04228921  1
  O  O8  1  0.40251121  0.37611980  0.17106302  1
  C  C9  1  0.46080588  0.16970959  0.17958605  1
  H  H10  1  0.18461153  0.46613228  0.05991373  1
  C  C11  1  0.34756375  0.23105176  0.24176171  1
  O  O12  1  0.20856062  0.03992878  0.16516102  1
  H  H13  1  0.26072189  0.01767060  0.05289548  1
  H  H14  1  0.45144768  0.47660903  0.13307124  1
  O  O15  1  0.03030711  0.45477793  0.03960797  1
  C  C16  1  0.24674768  0.07504848  0.03026515  1
  C  C17  1  0.43011466  0.31149563  0.15660241  1
  C  C18  1  0.17224124  0.49528168  0.11117316  1
  H  H19  1  0.29819241  0.48405802  0.13816275  1
  C  C20  1  0.44748187  0.10124105  0.22078887  1
  H  H21  1  0.30811490  0.28064508  0.24643988  1
  H  H22  1  0.09808882  0.43700318  0.23956424  1
  O  O23  1  0.48543204  0.30346354  0.11458940  1
  H  H24  1  0.49474672  0.05394672  0.22085209  1
  H  H25  1  0.48655420  0.47097594  0.24982312  1
  C  C26  1  0.25254240  0.21329141  0.43485035  1
  C  C27  1  0.38117326  0.02055906  0.38311467  1
  C  C28  1  0.41685022  0.47595450  0.46463911  1
  H  H29  1  0.05866367  0.43899188  0.46775653  1
  C  C30  1  0.19530529  0.39291838  0.30449700  1
  H  H31  1  0.20238845  0.37489375  0.48736470  1
  C  C32  1  0.35894935  0.01920852  0.31340256  1
  C  C33  1  0.11734604  0.15605321  0.42432496  1
  C  C34  1  0.39618168  0.22425172  0.39353759  1
  C  C35  1  0.07922061  0.45121049  0.35638043  1
  H  H36  1  0.05298598  0.15947105  0.40803542  1
  H  H37  1  0.46366223  0.46683348  0.42506053  1
  C  C38  1  0.11896217  0.42446930  0.29271459  1
  C  C39  1  0.22494201  0.37685312  0.37517925  1
  C  C40  1  0.16731869  0.21978374  0.41294433  1
  C  C41  1  0.10241667  0.42932429  0.42522254  1
  C  C42  1  0.17638929  0.39102579  0.43619758  1
  C  C43  1  0.37600694  0.09331252  0.26430916  1
  H  H44  1  0.14336135  0.27389242  0.39421827  1
  C  C45  1  0.28142712  0.14455472  0.46828469  1
  C  C46  1  0.10436726  0.00545955  0.45591654  1
  H  H47  1  0.37173615  0.43475406  0.32238927  1
  C  C48  1  0.32177508  0.26344933  0.40749581  1
  C  C49  1  0.37750496  0.37665675  0.34491848  1
  H  H50  1  0.39480109  0.15990932  0.40235257  1
  C  C51  1  0.30791102  0.34159294  0.37741207  1
  H  H52  1  0.27106486  0.15317305  0.30651799  1
  C  C53  1  0.32795514  0.15916337  0.27513694  1
  C  C54  1  0.46472638  0.26094166  0.36207658  1
  C  C55  1  0.14852356  0.08361931  0.45086456  1
  C  C56  1  0.45573281  0.34285937  0.34273804  1
  O  O57  1  0.03138749  0.00513409  0.44534533  1
  C  C58  1  0.22864720  0.08048411  0.47355235  1
  H  H59  1  0.22906042  0.37877138  0.25591817  1
  H  H60  1  0.25002173  0.02181335  0.49086129  1
  H  H61  1  0.34628074  0.14373883  0.48148539  1
  C  C62  1  0.00869666  0.03052691  0.63094429  1
  C  C63  1  0.08115845  0.08080402  0.73039128  1
  C  C64  1  0.36701987  0.44488658  0.58359604  1
  C  C65  1  0.48747342  0.10290565  0.66752394  1
  C  C66  1  0.42483780  0.43543311  0.52777850  1
  H  H67  1  0.10262630  0.12137452  0.61850925  1
  C  C68  1  0.43466015  0.36071954  0.66199861  1
  C  C69  1  0.35803631  0.40447999  0.65146052  1
  H  H70  1  0.38436836  0.26490070  0.71690868  1
  C  C71  1  0.09598718  0.25054435  0.67973767  1
  H  H72  1  0.03486105  0.32147971  0.52042773  1
  C  C73  1  0.10240682  0.27859336  0.60971778  1
  O  O74  1  0.06395811  0.46252031  0.59016079  1
  H  H75  1  0.16327176  0.27742875  0.58313262  1
  H  H76  1  0.44576243  0.26469215  0.53756218  1
  H  H77  1  0.25853439  0.49859031  0.61188774  1
  C  C78  1  0.06527967  0.08499915  0.65621916  1
  O  O79  1  0.29678889  0.40387972  0.68693460  1
  H  H80  1  0.48891969  0.38770739  0.64074557  1
  C  C81  1  0.29999261  0.49364856  0.56864642  1
  C  C82  1  0.03058138  0.29817866  0.57538222  1
  H  H83  1  0.06477912  0.41913770  0.62121126  1
  C  C84  1  0.43936841  0.29067419  0.69595647  1
  H  H85  1  0.25168911  0.31522858  0.71968655  1
  C  C86  1  0.12946429  0.49264874  0.70712339  1
  H  H87  1  0.28889457  0.05139809  0.74929222  1
  H  H88  1  0.43925662  0.10052444  0.70934132  1
  H  H89  1  0.00070227  0.02745631  0.57201376  1
  C  C90  1  0.10578526  0.42185531  0.73714284  1
  C  C91  1  0.02184820  0.24187990  0.71537666  1
  H  H92  1  0.06879217  0.37694947  0.70855292  1
  C  C93  1  0.23067449  0.25799905  0.74823880  1
  C  C94  1  0.16243380  0.21698940  0.72696348  1
  C  C95  1  0.23280119  0.17568927  0.85078300  1
  C  C96  1  0.34065593  0.28351695  0.84046293  1
  C  C97  1  0.45163218  0.27862537  0.92242554  1
  H  H98  1  0.27972896  0.04223402  0.93074931  1
  C  C99  1  0.23770540  0.16194906  0.92833845  1
  C  C100  1  0.26772549  0.24167721  0.81393938  1
  H  H101  1  0.37113095  0.17916277  0.90421378  1
  H  H102  1  0.03149143  0.05044322  0.83293884  1
  H  H103  1  0.11090212  0.34952988  0.82631783  1
  C  C104  1  0.17392742  0.12447037  0.82339212  1
  H  H105  1  0.15832867  0.07163453  0.85183638  1
  H  H106  1  0.45219983  0.45574680  0.84365004  1
  C  C107  1  0.47355891  0.35529945  0.90534160  1
  O  O108  1  0.40387978  0.11096197  0.80681260  1
  C  C109  1  0.42848983  0.39645699  0.85301568  1
  H  H110  1  0.32399475  0.39554793  0.78349609  1
  C  C111  1  0.21479262  0.43119032  0.91370005  1
  C  C112  1  0.35877720  0.36424693  0.82315120  1
  C  C113  1  0.25767741  0.09068163  0.95947729  1
  C  C114  1  0.41251920  0.05603278  0.84281761  1
  H  H115  1  0.01869494  0.22318511  0.77152236  1
  C  C116  1  0.18292158  0.45523920  0.84656309  1
  C  C117  1  0.03195545  0.03602338  0.77773241  1
  C  C118  1  0.13111705  0.40490301  0.80486541  1
  C  C119  1  0.38624472  0.24113074  0.89146257  1
  H  H120  1  0.18306840  0.28049129  0.95060130  1
  C  C121  1  0.34427061  0.00085208  0.84497411  1
  C  C122  1  0.13893588  0.14088325  0.75763346  1
  O  O123  1  0.24210807  0.41570958  0.96964008  1
  C  C124  1  0.48792133  0.02491674  0.88371860  1
  H  H125  1  0.48645111  0.24628284  0.96448468  1
  C  C126  1  0.28305704  0.00808675  0.79156804  1
  C  C127  1  0.20595898  0.22246764  0.97111686  1
  C  C128  1  0.46459249  0.64303928  0.03025233  1
  H  H129  1  0.36126583  0.71401979  0.17099286  1
  H  H130  1  0.42185810  0.75969183  0.05191660  1
  C  C131  1  0.23003608  0.55322918  0.21685630  1
  C  C132  1  0.46927654  0.56391171  0.05160364  1
  O  O133  1  0.49973128  0.84919425  0.07760262  1
  O  O134  1  0.02352221  0.74739060  0.08527158  1
  C  C135  1  0.09425221  0.52413087  0.12826164  1
  C  C136  1  0.39529527  0.67300057  0.13752165  1
  C  C137  1  0.08489024  0.71402660  0.06725116  1
  C  C138  1  0.08541330  0.56662506  0.18841705  1
  O  O139  1  0.40238786  0.92755900  0.09666092  1
  Zn  Zn140  1  0.14292530  0.94631956  0.19819492  1
  C  C141  1  0.42602371  0.69961049  0.07065006  1
  C  C142  1  0.40890839  0.59607549  0.16211501  1
  H  H143  1  0.10957068  0.68759124  0.11604088  1
  H  H144  1  0.22135536  0.63519276  0.06623965  1
  C  C145  1  0.47374884  0.91614033  0.08481386  1
  C  C146  1  0.15018959  0.58029583  0.23406334  1
  O  O147  1  0.23858949  0.79946706  0.20359896  1
  C  C148  1  0.23771437  0.50901276  0.15242792  1
  H  H149  1  0.02713683  0.58783751  0.19998164  1
  C  C150  1  0.44390817  0.53847488  0.11633001  1
  C  C151  1  0.21097915  0.66311513  0.01661921  1
  H  H152  1  0.49536014  0.75305053  0.19618721  1
  C  C153  1  0.02082053  0.50222086  0.08523620  1
  C  C154  1  0.38436550  0.58309717  0.24026168  1
  C  C155  1  0.05998150  0.87838051  0.24953757  1
  H  H156  1  0.32760864  0.92082691  0.23871174  1
  C  C157  1  0.13833914  0.70703876  0.00652229  1
  C  C158  1  0.29093408  0.55458314  0.33775575  1
  C  C159  1  0.45765113  0.78895804  0.30616825  1
  H  H160  1  0.48381187  0.73084993  0.29152629  1
  H  H161  1  0.14070811  0.61698435  0.28480527  1
  O  O162  1  0.14495579  0.94281214  0.46916255  1
  C  C163  1  0.37605449  0.79913355  0.32095105  1
  C  C164  1  0.30320724  0.56432233  0.26541832  1
  C  C165  1  0.45045658  0.59052254  0.28760337  1
  O  O166  1  0.37374706  0.95963255  0.44078115  1
  H  H167  1  0.37466901  0.83502106  0.44921163  1
  C  C168  1  0.11338338  0.83294725  0.25818449  1
  C  C169  1  0.43995218  0.57997280  0.36081339  1
  C  C170  1  0.35925559  0.55945492  0.38228640  1
  Zn  Zn171  1  0.23220141  0.90642326  0.37720218  1
  C  C172  1  0.34425049  0.87304725  0.34271909  1
  H  H173  1  0.32263260  0.69268930  0.35788876  1
  C  C174  1  0.32497279  0.93626892  0.29553057  1
  H  H175  1  0.23792014  0.58070335  0.49992441  1
  C  C176  1  0.35316998  0.88720274  0.42116702  1
  C  C177  1  0.35041411  0.52895321  0.45607794  1
  C  C178  1  0.31468284  0.73286136  0.30996809  1
  O  O179  1  0.22162883  0.74854208  0.30883826  1
  O  O180  1  0.43900616  0.71925866  0.48169760  1
  C  C181  1  0.48645542  0.67729246  0.45512411  1
  H  H182  1  0.22876743  0.54621559  0.35879140  1
  H  H183  1  0.48479480  0.90981513  0.32738113  1
  C  C184  1  0.19541042  0.79178033  0.25216133  1
  H  H185  1  0.33106707  0.69722943  0.26248296  1
  C  C186  1  0.37062023  0.86395627  0.62081733  1
  C  C187  1  0.37625412  0.83844639  0.69219548  1
  O  O188  1  0.27417632  0.74274494  0.68566297  1
  C  C189  1  0.41224380  0.92859297  0.60026029  1
  H  H190  1  0.33455842  0.82512396  0.58605543  1
  H  H191  1  0.18993734  0.60641767  0.72010981  1
  C  C192  1  0.32518359  0.77374706  0.71881448  1
  O  O193  1  0.10747726  0.58585662  0.61389611  1
  O  O194  1  0.07989571  0.83894527  0.71775405  1
  C  C195  1  0.09985274  0.52081585  0.63549492  1
  H  H196  1  0.41311645  0.94868410  0.54445377  1
  C  C197  1  0.45933870  0.97253577  0.64936892  1
  C  C198  1  0.28731640  0.53658438  0.50721158  1
  C  C199  1  0.46294063  0.94996075  0.72088144  1
  C  C200  1  0.17837637  0.54807764  0.74609858  1
  C  C201  1  0.42167936  0.88280707  0.74057602  1
  H  H202  1  0.42334180  0.86322197  0.79731233  1
  O  O203  1  0.34317183  0.74765142  0.79042898  1
  H  H204  1  0.22146731  0.57980396  0.85082670  1
  C  C205  1  0.07433321  0.66750941  0.89871417  1
  C  C206  1  0.28199036  0.71987278  0.83275671  1
  Zn  Zn207  1  0.02346935  0.77021916  0.85794782  1
  C  C208  1  0.19718764  0.53440071  0.81526941  1
  C  C209  1  0.13214633  0.84945858  0.84489586  1
  H  H210  1  0.22748755  0.72762895  0.79569354  1
  H  H211  1  0.26584940  0.83755360  0.92671421  1
  O  O212  1  0.49791713  0.96556192  0.91369114  1
  H  H213  1  0.13957872  0.85059866  0.96527449  1
  C  C214  1  0.27670919  0.68791671  0.89735033  1
  C  C215  1  0.10861549  0.73510985  0.94000615  1
  C  C216  1  0.11500882  0.81749589  0.92042896  1
  C  C217  1  0.33900539  0.93555245  0.89024349  1
  C  C218  1  0.27039120  0.88739599  0.89016492  1
  C  C219  1  0.20668837  0.90017719  0.84036946  1
  C  C220  1  0.21389042  0.96132439  0.78925627  1
  H  H221  1  0.38304040  0.92757635  0.93378776  1
  C  C222  1  0.08791201  0.83497704  0.77849880  1
  C  C223  1  0.05131944  0.99253801  0.96517843  1
  O  O224  1  0.04914455  0.60570206  0.89537050  1
  H  H225  1  0.32477461  0.61447383  0.97806328  1
  C  C226  1  0.27184482  0.65464008  0.96415926  1
  H  H227  1  0.49641248  0.98134842  0.75942773  1
  O  O228  1  0.10509675  0.96122123  0.99184592  1
  H  H229  1  0.16406337  0.97470835  0.75312277  1
  C  C230  1  0.79479376  0.05657989  0.07147619  1
  O  O231  1  0.78785343  0.12303926  0.08350390  1
  H  H232  1  0.66402008  0.02302289  0.08555416  1
  H  H233  1  0.54550323  0.10792262  0.06685395  1
  H  H234  1  0.91640331  0.11576762  0.20841785  1
  H  H235  1  0.70395397  0.46879930  0.00214465  1
  C  C236  1  0.86824114  0.08936610  0.24130716  1
  H  H237  1  0.51129502  0.17401833  0.14500926  1
  H  H238  1  0.70695094  0.21974612  0.24527084  1
  C  C239  1  0.50503025  0.05775545  0.07051963  1
  H  H240  1  0.95278887  0.40834527  0.00931610  1
  H  H241  1  0.87509118  0.35060902  0.03098149  1
  O  O242  1  0.88748888  0.39795445  0.00229130  1
  H  H243  1  0.72622572  0.38810743  0.39845235  1
  H  H244  1  0.63578668  0.05071263  0.40159995  1
  C  C245  1  0.99870325  0.48683063  0.34252382  1
  C  C246  1  0.54158074  0.45255933  0.28030061  1
  O  O247  1  0.80620208  0.12515356  0.26247688  1
  C  C248  1  0.59815693  0.37309903  0.37360881  1
  C  C249  1  0.75300910  0.09403095  0.30857695  1
  C  C250  1  0.53024746  0.39219555  0.33266987  1
  C  C251  1  0.54089021  0.21630201  0.35178297  1
  C  C252  1  0.62307562  0.10588147  0.37316222  1
  H  H253  1  0.58635054  0.32697138  0.41302509  1
  C  C254  1  0.55291927  0.14481960  0.38530435  1
  C  C255  1  0.68203361  0.13580530  0.32534884  1
  H  H256  1  0.63412696  0.12368216  0.49606303  1
  C  C257  1  0.67365765  0.40708023  0.36694055  1
  C  C258  1  0.59147830  0.24255332  0.29611788  1
  C  C259  1  0.66272869  0.20523133  0.28601592  1
  C  C260  1  0.68074413  0.46869855  0.31847895  1
  H  H261  1  0.50517844  0.12616708  0.42301897  1
  O  O262  1  0.76642313  0.02546961  0.33465590  1
  H  H263  1  0.57761864  0.29890206  0.26707590  1
  O  O264  1  0.81121071  0.49903321  0.36341286  1
  H  H265  1  0.58642983  0.49918067  0.39887035  1
  O  O266  1  0.97002253  0.49320962  0.28620589  1
  C  C267  1  0.61670683  0.48740335  0.27145339  1
  C  C268  1  0.88287788  0.01428668  0.26719521  1
  C  C269  1  0.52603745  0.17427311  0.65063734  1
  H  H270  1  0.70570406  0.27054850  0.57451267  1
  C  C271  1  0.91626738  0.44565860  0.74090044  1
  C  C272  1  0.57773070  0.04466154  0.57421331  1
  C  C273  1  0.95509174  0.28895002  0.61019156  1
  C  C274  1  0.59732700  0.28579046  0.70626657  1
  C  C275  1  0.95192410  0.26251389  0.67821825  1
  C  C276  1  0.59717118  0.11804899  0.54407485  1
  O  O277  1  0.81065125  0.29205817  0.60789074  1
  C  C278  1  0.87203131  0.31673722  0.57581877  1
  C  C279  1  0.56769098  0.18275211  0.58081197  1
  Zn  Zn280  1  0.80040448  0.38199195  0.72833792  1
  C  C281  1  0.65464399  0.37940068  0.53407799  1
  H  H282  1  0.89072790  0.25489889  0.70154909  1
  C  C283  1  0.51991586  0.25002524  0.69354961  1
  O  O284  1  0.86844387  0.34486848  0.51756762  1
  H  H285  1  0.65213060  0.25213722  0.69700524  1
  C  C286  1  0.57524443  0.26597791  0.55153957  1
  C  C287  1  0.65306887  0.30267967  0.55307310  1
  H  H288  1  0.71227928  0.40848025  0.52543564  1
  C  C289  1  0.59937881  0.35872913  0.74155758  1
  C  C290  1  0.51389391  0.03841819  0.62674682  1
  C  C291  1  0.58067257  0.42256271  0.52639313  1
  C  C292  1  0.50278903  0.38497051  0.52784017  1
  C  C293  1  0.50069581  0.30360329  0.53613726  1
  H  H294  1  0.95650668  0.49737159  0.73375970  1
  C  C295  1  0.68755373  0.10380225  0.93573700  1
  C  C296  1  0.91566483  0.39083921  0.78405775  1
  C  C297  1  0.54615456  0.39908177  0.93691538  1
  C  C298  1  0.67042701  0.40029654  0.75658540  1
  C  C299  1  0.55438081  0.08104932  0.88711545  1
  H  H300  1  0.80076597  0.18137012  0.98363006  1
  O  O301  1  0.99763039  0.02724458  0.93888102  1
  C  C302  1  0.62188362  0.05470217  0.92720549  1
  H  H303  1  0.96359243  0.36785502  0.82222850  1
  C  C304  1  0.55264144  0.15694897  0.85662657  1
  O  O305  1  0.82114978  0.22484073  0.95573065  1
  H  H306  1  0.61773209  0.26520223  0.84575994  1
  O  O307  1  0.74965751  0.29940533  0.88346401  1
  C  C308  1  0.75118176  0.23956697  0.91568543  1
  H  H309  1  0.73856718  0.08586691  0.96982602  1
  C  C310  1  0.68474789  0.17943517  0.90724069  1
  O  O311  1  0.56526709  0.46131698  0.90321543  1
  C  C312  1  0.61771789  0.20502347  0.86685361  1
  O  O313  1  0.75115384  0.48762233  0.96979337  1
  H  H314  1  0.50212477  0.17799041  0.82166665  1
  C  C315  1  0.70437002  0.46957047  0.78388307  1
  O  O316  1  0.58188900  0.37781608  0.98773104  1
  H  H317  1  0.88807069  0.01034601  0.99093799  1
  H  H318  1  0.53979422  0.38457018  0.75789833  1
  Zn  Zn319  1  0.85279590  0.53268857  0.02027700  1
  C  C320  1  0.67058201  0.65604324  0.14983120  1
  O  O321  1  0.94930882  0.52622287  0.10203853  1
  O  O322  1  0.76995462  0.57536651  0.09280895  1
  C  C323  1  0.56003038  0.73504416  0.19642470  1
  C  C324  1  0.65554714  0.91003257  0.03926700  1
  C  C325  1  0.58550183  0.67678316  0.15140883  1
  O  O326  1  0.64703076  0.58034212  0.04874824  1
  H  H327  1  0.54194661  0.64733364  0.11534539  1
  C  C328  1  0.53543008  0.98908326  0.07132739  1
  C  C329  1  0.69596025  0.59800915  0.09512299  1
  C  C330  1  0.61263360  0.77272625  0.24659714  1
  C  C331  1  0.72150232  0.68828753  0.19724198  1
  Zn  Zn332  1  0.81545418  0.96356075  0.13792357  1
  C  C333  1  0.82446376  0.90636290  0.04004255  1
  H  H334  1  0.95174641  0.86308669  0.04792205  1
  C  C335  1  0.73772964  0.87540279  0.02259899  1
  C  C336  1  0.88893958  0.85351259  0.02809496  1
  C  C337  1  0.96091571  0.97455716  0.24492917  1
  Zn  Zn338  1  0.83691504  0.68853042  0.24010304  1
  C  C339  1  0.62479093  0.97898980  0.06604792  1
  H  H340  1  0.50392280  0.52355666  0.01703846  1
  C  C341  1  0.83980609  0.99156702  0.03233420  1
  H  H342  1  0.62499636  0.52939345  0.23095413  1
  C  C343  1  0.83941690  0.89094701  0.45903325  1
  H  H344  1  0.83819987  0.92747087  0.33920591  1
  H  H345  1  0.90283705  0.52868627  0.38335507  1
  H  H346  1  0.51351816  0.93156764  0.47669272  1
  H  H347  1  0.55997035  0.78717185  0.46432482  1
  C  C348  1  0.92263179  0.78084731  0.39587355  1
  O  O349  1  0.96322078  0.74117922  0.36138181  1
  H  H350  1  0.71405025  0.83881774  0.38028355  1
  C  C351  1  0.76159903  0.51171309  0.31668953  1
  C  C352  1  0.56780696  0.54459348  0.43794540  1
  H  H353  1  0.51074057  0.59923228  0.26421307  1
  O  O354  1  0.95935167  0.52664972  0.40276499  1
  H  H355  1  0.63774908  0.87509040  0.30982057  1
  H  H356  1  0.77900116  0.89297004  0.48800162  1
  C  C357  1  0.59009313  0.83907905  0.28650989  1
  C  C358  1  0.84494834  0.82619637  0.40188279  1
  C  C359  1  0.76933299  0.81201685  0.35813131  1
  C  C360  1  0.76206293  0.76790405  0.30074877  1
  H  H361  1  0.85316933  0.94943355  0.43591939  1
  O  O362  1  0.98175943  0.90606897  0.26878647  1
  O  O363  1  0.77580806  0.55542566  0.26578947  1
  C  C364  1  0.70012004  0.74133348  0.25188534  1
  C  C365  1  0.50366496  0.60358213  0.41463900  1
  Zn  Zn366  1  0.95695618  0.85868099  0.47822206  1
  C  C367  1  0.83024917  0.98459858  0.31507971  1
  C  C368  1  0.50993012  0.85480607  0.30663503  1
  Zn  Zn369  1  0.60080878  0.64366800  0.49397640  1
  C  C370  1  0.60673740  0.55687443  0.57688221  1
  C  C371  1  0.60832237  0.96728866  0.55385137  1
  O  O372  1  0.63068691  0.56271241  0.63503411  1
  C  C373  1  0.71463957  0.85266051  0.57700554  1
  H  H374  1  0.73352076  0.98576334  0.59359068  1
  H  H375  1  0.77748895  0.83728618  0.58593451  1
  C  C376  1  0.58768397  0.50981156  0.51301662  1
  C  C377  1  0.68722562  0.93966541  0.58115420  1
  Zn  Zn378  1  0.59778841  0.86201098  0.61200322  1
  O  O379  1  0.89159365  0.92375188  0.58140687  1
  C  C380  1  0.91135586  0.91711374  0.64746164  1
  O  O381  1  0.89047973  0.85992796  0.67860441  1
  C  C382  1  0.66449398  0.79511906  0.54119971  1
  C  C383  1  0.96866159  0.97942618  0.67807021  1
  C  C384  1  0.56347300  0.91157471  0.51105500  1
  C  C385  1  0.58679293  0.82455140  0.50964215  1
  O  O386  1  0.76098071  0.69895385  0.52770750  1
  C  C387  1  0.69398558  0.71782464  0.52591626  1
  O  O388  1  0.72607419  0.66644912  0.91115573  1
  H  H389  1  0.93980649  0.94053129  0.78430186  1
  Zn  Zn390  1  0.65649818  0.55142919  0.92938297  1
  O  O391  1  0.84950077  0.63338926  0.94420300  1
  C  C392  1  0.79305736  0.68034043  0.94143162  1
  C  C393  1  0.97680880  0.98227939  0.75127002  1
  O  O394  1  0.70613627  0.53345795  0.81103968  1
  O  O395  1  0.53978278  0.61105241  0.92482174  1
  C  C396  1  0.80236354  0.75896449  0.97751645  1
  C  C397  1  0.50509854  0.66280534  0.96222381  1
  H  H398  1  0.62269815  0.99594120  0.95151333  1
  Zn  Zn399  1  0.60439339  0.81255305  0.98762009  1
  C  C400  1  0.73329720  0.80145475  0.98774652  1
  O  O401  1  0.50192083  0.72923963  0.93991837  1
  C  C402  1  0.88201857  0.78371911  0.99451025  1
  H  H403  1  0.93104101  0.74014262  0.98778712  1
