# generated using pymatgen
data_Zn3H14(C2O)16
_symmetry_space_group_name_H-M   'P 1'
_cell_length_a   18.93145128
_cell_length_b   14.87868460
_cell_length_c   18.34173792
_cell_angle_alpha   90.00000000
_cell_angle_beta   90.00000000
_cell_angle_gamma   90.00000000
_symmetry_Int_Tables_number   1
_chemical_formula_structural   Zn3H14(C2O)16
_chemical_formula_sum   'Zn12 H56 C128 O64'
_cell_volume   5166.41072624
_cell_formula_units_Z   4
loop_
 _symmetry_equiv_pos_site_id
 _symmetry_equiv_pos_as_xyz
  1  'x, y, z'
loop_
 _atom_site_type_symbol
 _atom_site_label
 _atom_site_symmetry_multiplicity
 _atom_site_fract_x
 _atom_site_fract_y
 _atom_site_fract_z
 _atom_site_occupancy
  C  C0  1  0.39254620  0.12607975  0.07658168  1
  H  H1  1  0.07941988  0.12685227  0.04946417  1
  C  C2  1  0.39415087  0.21766021  0.06031841  1
  H  H3  1  0.43803807  0.08817256  0.09614991  1
  C  C4  1  0.32870446  0.08134636  0.06120144  1
  C  C5  1  0.26860108  0.13084072  0.03971332  1
  C  C6  1  0.27476260  0.22206708  0.02183045  1
  H  H7  1  0.21775028  0.10037124  0.03685487  1
  O  O8  1  0.49325114  0.09741768  0.22830625  1
  C  C9  1  0.04109368  0.13224920  0.00420202  1
  C  C10  1  0.44601597  0.22751081  0.87565171  1
  C  C11  1  0.05014950  0.08638506  0.93841200  1
  H  H12  1  0.49856583  0.21011962  0.89241175  1
  C  C13  1  0.32399578  0.19232099  0.83179399  1
  C  C14  1  0.40930238  0.06970214  0.88326983  1
  H  H15  1  0.28137731  0.14357506  0.82095096  1
  C  C16  1  0.11824306  0.03660325  0.93724129  1
  C  C17  1  0.39238534  0.16169229  0.86186041  1
  H  H18  1  0.12714258  0.05761768  0.81715608  1
  C  C19  1  0.15402048  0.03086580  0.86766616  1
  O  O20  1  0.22993295  0.05548731  0.73454539  1
  O  O21  1  0.42994734  0.00064614  0.90412238  1
  C  C22  1  0.00456917  0.09678080  0.87685238  1
  H  H23  1  0.01229976  0.05307299  0.82609377  1
  C  C24  1  0.25320072  0.00318977  0.78084531  1
  C  C25  1  0.33862786  0.26649268  0.02743508  1
  H  H26  1  0.40162771  0.38403304  0.13476286  1
  C  C27  1  0.45371045  0.35464100  0.13596347  1
  O  O28  1  0.11490417  0.46725430  0.04763360  1
  C  C29  1  0.45918603  0.26547229  0.09064260  1
  O  O30  1  0.01586769  0.26953031  0.10983514  1
  H  H31  1  0.34056707  0.33811404  0.01667841  1
  H  H32  1  0.02332070  0.48482530  0.09241827  1
  Zn  Zn33  1  0.06339331  0.35584254  0.00916402  1
  O  O34  1  0.15584856  0.26159880  0.00450634  1
  C  C35  1  0.12464325  0.35589398  0.79393116  1
  H  H36  1  0.30810750  0.38495794  0.69552314  1
  C  C37  1  0.21897299  0.28967309  0.99981589  1
  C  C38  1  0.19579725  0.47247663  0.63104220  1
  C  C39  1  0.05413962  0.35023364  0.83447196  1
  C  C40  1  0.25223191  0.32401680  0.78639413  1
  C  C41  1  0.43250343  0.31955026  0.86782601  1
  C  C42  1  0.31920154  0.28524708  0.82423344  1
  O  O43  1  0.47387494  0.46541837  0.91017708  1
  O  O44  1  0.05578612  0.30640787  0.89098888  1
  C  C45  1  0.36942121  0.35268271  0.84273587  1
  C  C46  1  0.18468297  0.31393463  0.82020258  1
  C  C47  1  0.25690379  0.37856891  0.72593203  1
  H  H48  1  0.36135466  0.42479485  0.83519401  1
  H  H49  1  0.07998684  0.43834652  0.71079213  1
  O  O50  1  0.22934903  0.37021693  0.98399660  1
  C  C51  1  0.48782800  0.38792575  0.89304309  1
  C  C52  1  0.19481222  0.41645572  0.69890131  1
  C  C53  1  0.12797332  0.40604484  0.73044704  1
  H  H54  1  0.17847870  0.27409729  0.87135886  1
  O  O55  1  0.26292310  0.47559392  0.59712289  1
  O  O56  1  0.00103047  0.39164190  0.80826257  1
  H  H57  1  0.17254067  0.55335231  0.16131094  1
  H  H58  1  0.06021680  0.56711931  0.32447611  1
  O  O59  1  0.47033124  0.54102440  0.12885483  1
  O  O60  1  0.08166367  0.54375240  0.20770375  1
  O  O61  1  0.01078325  0.55991319  0.30712988  1
  O  O62  1  0.21433645  0.58122744  0.13816204  1
  C  C63  1  0.02256319  0.54359091  0.23153477  1
  O  O64  1  0.35174544  0.70060623  0.26988940  1
  H  H65  1  0.21062887  0.64553283  0.14450335  1
  O  O66  1  0.34037668  0.50372733  0.04006136  1
  H  H67  1  0.33827857  0.55245701  0.07417619  1
  Zn  Zn68  1  0.22607944  0.50794924  0.02589435  1
  Zn  Zn69  1  0.44706952  0.52674790  0.01743824  1
  H  H70  1  0.09092924  0.50492787  0.01664209  1
  C  C71  1  0.18456955  0.64501615  0.90104683  1
  C  C72  1  0.13647171  0.72867396  0.77925830  1
  O  O73  1  0.22535509  0.61124389  0.86068441  1
  H  H74  1  0.17596415  0.69414931  0.74082082  1
  O  O75  1  0.45097063  0.65329782  0.95715608  1
  C  C76  1  0.13311965  0.71444629  0.85252694  1
  H  H77  1  0.08749627  0.73417364  0.95699435  1
  O  O78  1  0.18244962  0.63775060  0.96779438  1
  H  H79  1  0.24971310  0.50891181  0.55252830  1
  O  O80  1  0.14538640  0.50512816  0.60654006  1
  C  C81  1  0.45288943  0.72549454  0.98998337  1
  C  C82  1  0.33176436  0.98274051  0.07684702  1
  C  C83  1  0.46483403  0.90397970  0.25046416  1
  O  O84  1  0.04844594  0.91468944  0.12631122  1
  Zn  Zn85  1  0.39740799  0.77412433  0.13666206  1
  O  O86  1  0.38486367  0.95459482  0.10290873  1
  O  O87  1  0.23341049  0.87727303  0.09490184  1
  H  H88  1  0.41805491  0.94734244  0.23636552  1
  C  C89  1  0.38664801  0.75463997  0.24396249  1
  C  C90  1  0.45422007  0.79911836  0.24010658  1
  C  C91  1  0.26038165  0.93134039  0.05893265  1
  H  H92  1  0.47653338  0.88797221  0.03683878  1
  H  H93  1  0.06122434  0.85209420  0.00016152  1
  O  O94  1  0.40021417  0.75547234  0.02555123  1
  H  H95  1  0.13230163  0.98830845  0.05108178  1
  H  H96  1  0.31448423  0.93438332  0.91115988  1
  C  C97  1  0.08525952  0.79221024  0.74773921  1
  C  C98  1  0.03668091  0.81702628  0.86942477  1
  C  C99  1  0.03761909  0.83931707  0.79450537  1
  C  C100  1  0.25982838  0.96189745  0.91742776  1
  O  O101  1  0.08431938  0.83755928  0.61075197  1
  C  C102  1  0.22562374  0.96393456  0.98554672  1
  C  C103  1  0.08672207  0.81819091  0.67184569  1
  C  C104  1  0.15571697  0.99238431  0.99481930  1
  C  C105  1  0.00900188  0.88154261  0.98632423  1
  C  C106  1  0.08923519  0.75618715  0.89909424  1
  C  C107  1  0.22024934  0.99361209  0.86063631  1
  O  O108  1  0.30032299  0.94857940  0.76623219  1
  C  C109  1  0.65654860  0.11328315  0.45295207  1
  H  H110  1  0.63101667  0.14711716  0.40665704  1
  C  C111  1  0.71983656  0.15083914  0.48310861  1
  C  C112  1  0.81941565  0.18597507  0.40350679  1
  O  O113  1  0.78548658  0.08151844  0.17824915  1
  O  O114  1  0.92814837  0.14295460  0.29392199  1
  O  O115  1  0.91127981  0.21186711  0.12048541  1
  H  H116  1  0.83028796  0.11331483  0.40417131  1
  C  C117  1  0.54242692  0.04568411  0.23294491  1
  O  O118  1  0.60583755  0.07605115  0.23919882  1
  Zn  Zn119  1  0.67927857  0.13709680  0.16897511  1
  Zn  Zn120  1  0.88974427  0.10488166  0.19622321  1
  O  O121  1  0.65061626  0.03551508  0.07434286  1
  H  H122  1  0.78445331  0.03319558  0.21384535  1
  C  C123  1  0.96696082  0.22420307  0.08351317  1
  O  O124  1  0.53390066  0.03592184  0.06690633  1
  C  C125  1  0.59385956  0.00313299  0.05750818  1
  H  H126  1  0.53554592  0.19115094  0.02250519  1
  C  C127  1  0.76350029  0.22319431  0.44249531  1
  O  O128  1  0.51838487  0.06166247  0.42268497  1
  O  O129  1  0.70729114  0.23488584  0.25326959  1
  C  C130  1  0.62481945  0.04304572  0.48773308  1
  C  C131  1  0.92334848  0.22394896  0.31837695  1
  C  C132  1  0.55434238  0.00642861  0.45231031  1
  C  C133  1  0.97885814  0.18160791  0.00688291  1
  C  C134  1  0.86304008  0.24919906  0.36880786  1
  C  C135  1  0.53609472  0.23613394  0.06979060  1
  H  H136  1  0.87668981  0.01978964  0.04477475  1
  C  C137  1  0.94654640  0.15316687  0.88605818  1
  H  H138  1  0.73864813  0.05362027  0.96439948  1
  Zn  Zn139  1  0.84387134  0.00086418  0.76347936  1
  C  C140  1  0.92903537  0.19203234  0.95308988  1
  C  C141  1  0.74812044  0.11436089  0.54734573  1
  C  C142  1  0.90239645  0.17336299  0.82284274  1
  O  O143  1  0.90614239  0.12882921  0.76540571  1
  H  H144  1  0.79867641  0.13332351  0.57495470  1
  O  O145  1  0.86122079  0.23819204  0.83114758  1
  O  O146  1  0.79049176  0.05112910  0.97928966  1
  H  H147  1  0.87590091  0.22802731  0.95868711  1
  C  C148  1  0.71029350  0.03884911  0.57475966  1
  O  O149  1  0.79324390  0.04047990  0.67508727  1
  C  C150  1  0.73962672  0.00124562  0.64524191  1
  C  C151  1  0.81788804  0.00263055  0.91958219  1
  C  C152  1  0.83434901  0.49172014  0.18163388  1
  H  H153  1  0.63361531  0.42493603  0.14654782  1
  C  C154  1  0.66207787  0.28697112  0.04984157  1
  C  C155  1  0.68172739  0.39546658  0.28073953  1
  H  H156  1  0.79464799  0.45974211  0.07179958  1
  C  C157  1  0.73895577  0.40592109  0.23566358  1
  C  C158  1  0.83984499  0.47145915  0.10757465  1
  C  C159  1  0.64905602  0.46580045  0.31953198  1
  C  C160  1  0.59405986  0.29797202  0.08945302  1
  C  C161  1  0.58716565  0.37796745  0.13872496  1
  H  H162  1  0.89261607  0.38584791  0.34828669  1
  C  C163  1  0.51326077  0.40803131  0.16079414  1
  H  H164  1  0.75664644  0.35217206  0.20003932  1
  O  O165  1  0.96284473  0.28265671  0.29871547  1
  H  H166  1  0.60670068  0.44947894  0.35784294  1
  C  C167  1  0.85386631  0.34120993  0.37720450  1
  C  C168  1  0.91804699  0.43267692  0.00102986  1
  Zn  Zn169  1  0.52690574  0.27010535  0.17884638  1
  C  C170  1  0.80081325  0.37099810  0.42377066  1
  C  C171  1  0.80396986  0.47221425  0.43672719  1
  O  O172  1  0.61084743  0.26811085  0.31132732  1
  C  C173  1  0.90918652  0.46799431  0.07788831  1
  C  C174  1  0.74819133  0.31336828  0.45145588  1
  C  C175  1  0.96852763  0.49175881  0.11617938  1
  C  C176  1  0.66464574  0.29367003  0.28104265  1
  C  C177  1  0.76613544  0.49415155  0.22753686  1
  O  O178  1  0.70747218  0.25261411  0.08981426  1
  H  H179  1  0.70115915  0.33739581  0.48311858  1
  Zn  Zn180  1  0.90032829  0.36991337  0.84981558  1
  O  O181  1  0.54873713  0.35708609  0.89432683  1
  O  O182  1  0.87007237  0.39630808  0.96664251  1
  Zn  Zn183  1  0.64678639  0.41709582  0.92034604  1
  O  O184  1  0.71929343  0.47956555  0.84494618  1
  O  O185  1  0.98105838  0.43803346  0.97476356  1
  O  O186  1  0.65697985  0.41185210  0.59366493  1
  O  O187  1  0.83721868  0.48698463  0.83706732  1
  O  O188  1  0.65780304  0.49552814  0.58137024  1
  O  O189  1  0.67182455  0.29611142  0.98170600  1
  C  C190  1  0.66158089  0.62860935  0.08722511  1
  C  C191  1  0.73218921  0.65510113  0.08236183  1
  O  O192  1  0.62252116  0.68455980  0.39033691  1
  H  H193  1  0.76308698  0.63466971  0.25244011  1
  H  H194  1  0.76231616  0.61689359  0.04097774  1
  C  C195  1  0.87889272  0.72289801  0.05118860  1
  C  C196  1  0.67538369  0.55415992  0.30902158  1
  O  O197  1  0.93761724  0.70201950  0.04164740  1
  H  H198  1  0.55971607  0.65480199  0.13551277  1
  C  C199  1  0.64627820  0.62895588  0.35254042  1
  C  C200  1  0.63844041  0.55727034  0.03141030  1
  C  C201  1  0.61635840  0.67185552  0.13289310  1
  C  C202  1  0.76249248  0.72181071  0.12490203  1
  C  C203  1  0.50261321  0.50385840  0.18204865  1
  O  O204  1  0.57884397  0.52374887  0.02448284  1
  C  C205  1  0.95806877  0.51692596  0.18934309  1
  H  H206  1  0.52546825  0.66636077  0.24555490  1
  C  C207  1  0.73794201  0.56966158  0.26193323  1
  H  H208  1  0.88747838  0.52801080  0.28406404  1
  C  C209  1  0.89331317  0.50979063  0.22530123  1
  C  C210  1  0.64452519  0.74174958  0.18030413  1
  O  O211  1  0.52739981  0.54714611  0.23076473  1
  O  O212  1  0.84579170  0.52313312  0.41082696  1
  C  C213  1  0.52690380  0.74443109  0.24689372  1
  H  H214  1  0.76638802  0.51289249  0.47502459  1
  H  H215  1  0.67007850  0.64898850  0.84812657  1
  H  H216  1  0.87373220  0.58555944  0.95805645  1
  C  C217  1  0.71738990  0.67521410  0.87465790  1
  C  C218  1  0.82991020  0.63009760  0.94444023  1
  C  C219  1  0.77642631  0.60934445  0.88526129  1
  H  H220  1  0.58016840  0.67477378  0.92717769  1
  C  C221  1  0.77839814  0.52070370  0.85152410  1
  Zn  Zn222  1  0.81321032  0.74654554  0.87734431  1
  O  O223  1  0.68647040  0.52778698  0.99252578  1
  C  C224  1  0.58213464  0.74083976  0.95600883  1
  C  C225  1  0.83259807  0.71658443  0.98661191  1
  C  C226  1  0.53355449  0.94668463  0.23844770  1
  O  O227  1  0.79218975  0.93501565  0.30773238  1
  Zn  Zn228  1  0.54132043  0.84471449  0.31711616  1
  H  H229  1  0.63688753  0.92180872  0.18141236  1
  C  C230  1  0.59460439  0.88948437  0.21592637  1
  O  O231  1  0.94832931  0.98240645  0.15690902  1
  H  H232  1  0.74092238  0.80781790  0.21867005  1
  C  C233  1  0.96563406  0.93430827  0.03311238  1
  C  C234  1  0.98987344  0.94304151  0.11165003  1
  C  C235  1  0.59241624  0.78865181  0.22351594  1
  C  C236  1  0.52534600  0.86025261  0.01896351  1
  O  O237  1  0.72660283  0.94100830  0.30147277  1
  C  C238  1  0.90522857  0.97517096  0.00915293  1
  H  H239  1  0.76328865  0.83212423  0.01989655  1
  O  O240  1  0.53550212  0.92718428  0.45730538  1
  C  C241  1  0.58794426  0.90993821  0.01816402  1
  C  C242  1  0.83651830  0.75165506  0.11949142  1
  O  O243  1  0.85573632  0.78851461  0.17216800  1
  C  C244  1  0.71910769  0.75822968  0.17776762  1
  H  H245  1  0.69788180  0.91533289  0.00247288  1
  H  H246  1  0.61779543  0.94193043  0.57604865  1
  O  O247  1  0.78215578  0.99473801  0.86319238  1
  C  C248  1  0.88329233  0.95726540  0.93563161  1
  C  C249  1  0.92223603  0.90717724  0.88113618  1
  C  C250  1  0.71298793  0.76103331  0.92162710  1
  O  O251  1  0.90344987  0.89844092  0.81529481  1
  H  H252  1  0.99644116  0.88611297  0.77406965  1
  C  C253  1  0.64599970  0.79086960  0.95890257  1
  O  O254  1  0.71182636  0.93845605  0.67951616  1
  C  C255  1  0.98805813  0.87237890  0.91480473  1
  C  C256  1  0.77633937  0.78531316  0.97333673  1
  C  C257  1  0.52216899  0.77385702  0.98932118  1
  C  C258  1  0.64821894  0.99792175  0.54986380  1
  C  C259  1  0.65080512  0.87672544  0.99196383  1
