# generated using pymatgen
data_Cu3H2C10(NO2)4
_symmetry_space_group_name_H-M   'P 1'
_cell_length_a   17.16468578
_cell_length_b   17.73240471
_cell_length_c   24.55837664
_cell_angle_alpha   90.00000000
_cell_angle_beta   90.00000000
_cell_angle_gamma   90.00000000
_symmetry_Int_Tables_number   1
_chemical_formula_structural   Cu3H2C10(NO2)4
_chemical_formula_sum   'Cu48 H32 C160 N64 O128'
_cell_volume   7474.86146286
_cell_formula_units_Z   16
loop_
 _symmetry_equiv_pos_site_id
 _symmetry_equiv_pos_as_xyz
  1  'x, y, z'
loop_
 _atom_site_type_symbol
 _atom_site_label
 _atom_site_symmetry_multiplicity
 _atom_site_fract_x
 _atom_site_fract_y
 _atom_site_fract_z
 _atom_site_occupancy
  H  H0  1  0.20305886  0.02875428  0.14766088  1
  O  O1  1  0.21058669  0.18648190  0.09773913  1
  O  O2  1  0.29948783  0.05639379  0.06768770  1
  O  O3  1  0.10714515  0.11445661  0.09113388  1
  Cu  Cu4  1  0.29254914  0.13173644  0.12477364  1
  C  C5  1  0.36976197  0.07027981  0.21401647  1
  C  C6  1  0.10264379  0.21410168  0.15530817  1
  C  C7  1  0.12961080  0.28337209  0.17534535  1
  O  O8  1  0.37500445  0.08413309  0.16355548  1
  N  N9  1  0.24930531  0.14708725  0.22552622  1
  C  C10  1  0.07757587  0.29969632  0.21769506  1
  C  C11  1  0.13719996  0.16910908  0.10798448  1
  H  H12  1  0.17347987  0.32010490  0.15452306  1
  N  N13  1  0.04209279  0.19056316  0.18278965  1
  C  C14  1  0.30417900  0.09829959  0.24580524  1
  O  O15  1  0.41390593  0.02872812  0.24176288  1
  N  N16  1  0.02650270  0.24199367  0.22262703  1
  O  O17  1  0.11043914  0.42652563  0.24645742  1
  O  O18  1  0.41735677  0.16746094  0.32097418  1
  H  H19  1  0.31849518  0.03654483  0.32906542  1
  C  C20  1  0.28634452  0.08027272  0.30029456  1
  C  C21  1  0.22276600  0.12592414  0.31218462  1
  Cu  Cu22  1  0.22644065  0.15803388  0.47148558  1
  N  N23  1  0.01999724  0.40063567  0.47057801  1
  N  N24  1  0.20506718  0.16929633  0.26718797  1
  O  O25  1  0.21741968  0.10603152  0.40528983  1
  Cu  Cu26  1  0.05247259  0.14432163  0.41936233  1
  C  C27  1  0.18196953  0.13340490  0.36444877  1
  O  O28  1  0.12475791  0.17603625  0.37320388  1
  N  N29  1  0.00130649  0.47571022  0.47213895  1
  O  O30  1  0.17578085  0.46041333  0.41717959  1
  O  O31  1  0.43507100  0.17122104  0.41015528  1
  C  C32  1  0.45448202  0.14948419  0.36100748  1
  Cu  Cu33  1  0.36576330  0.12150541  0.45618738  1
  O  O34  1  0.02522405  0.24744434  0.43750851  1
  Cu  Cu35  1  0.14190028  0.48818964  0.30284149  1
  C  C36  1  0.06953731  0.36652412  0.25044820  1
  O  O37  1  0.01617438  0.36086859  0.28660140  1
  Cu  Cu38  1  0.18057491  0.47585372  0.55592247  1
  N  N39  1  0.24879268  0.41093194  0.65147249  1
  C  C40  1  0.22016455  0.03074322  0.72754233  1
  C  C41  1  0.22630037  0.31855380  0.58756707  1
  Cu  Cu42  1  0.08433049  0.36709696  0.53887497  1
  C  C43  1  0.19783965  0.27454034  0.53957500  1
  C  C44  1  0.19439636  0.01733451  0.52284392  1
  C  C45  1  0.48160707  0.14806139  0.54205293  1
  C  C46  1  0.26258388  0.28866143  0.63587796  1
  C  C47  1  0.46977376  0.35474364  0.57637761  1
  C  C48  1  0.45425365  0.27435404  0.56214447  1
  C  C49  1  0.27622231  0.34778799  0.67148342  1
  O  O50  1  0.22484499  0.20856832  0.53389024  1
  N  N51  1  0.21589388  0.38850484  0.59250117  1
  O  O52  1  0.15370296  0.30110449  0.50399851  1
  H  H53  1  0.28092818  0.22993231  0.64394213  1
  N  N54  1  0.41002625  0.25949364  0.52874408  1
  C  C55  1  0.20035739  0.01237149  0.66881719  1
  C  C56  1  0.04145502  0.47855661  0.62114514  1
  H  H57  1  0.28032272  0.08236556  0.61549600  1
  N  N58  1  0.42785589  0.16475011  0.51369654  1
  O  O59  1  0.41912313  0.39937180  0.59263976  1
  O  O60  1  0.01879920  0.43348360  0.58159108  1
  C  C61  1  0.23605051  0.03853634  0.62101062  1
  O  O62  1  0.09003482  0.45769935  0.65367586  1
  C  C63  1  0.31159686  0.34437145  0.72717789  1
  O  O64  1  0.26373838  0.08225077  0.73361298  1
  C  C65  1  0.19011094  0.00141034  0.58202206  1
  O  O66  1  0.24742526  0.06164139  0.50644109  1
  O  O67  1  0.49069559  0.01104965  0.51853535  1
  O  O68  1  0.32153152  0.27456035  0.74127530  1
  C  C69  1  0.13623506  0.35263444  0.87846634  1
  O  O70  1  0.09710186  0.40839160  0.89977181  1
  Cu  Cu71  1  0.22480175  0.19224726  0.81624005  1
  N  N72  1  0.25535411  0.12598083  0.86765334  1
  Cu  Cu73  1  0.35422869  0.24385026  0.80694846  1
  C  C74  1  0.38449841  0.16078057  0.90531949  1
  N  N75  1  0.19823752  0.05513281  0.87787978  1
  N  N76  1  0.13306450  0.21776745  0.85191130  1
  O  O77  1  0.19731955  0.36082638  0.85500960  1
  O  O78  1  0.43938576  0.13889417  0.93646913  1
  C  C79  1  0.31408560  0.11612859  0.90115423  1
  O  O80  1  0.39215657  0.21778073  0.87372446  1
  N  N81  1  0.06950877  0.14859006  0.85714613  1
  Cu  Cu82  1  0.10748537  0.05777870  0.83441321  1
  C  C83  1  0.22634747  0.01431870  0.91656764  1
  C  C84  1  0.10018765  0.27348586  0.87553821  1
  C  C85  1  0.01214599  0.18091210  0.88222159  1
  C  C86  1  0.29905822  0.04785703  0.92864948  1
  C  C87  1  0.02308217  0.25602009  0.89470577  1
  H  H88  1  0.33893221  0.02579650  0.96113076  1
  O  O89  1  0.31585877  0.39674904  0.75832208  1
  Cu  Cu90  1  0.07258917  0.49502148  0.86423939  1
  C  C91  1  0.18037448  0.91032509  0.17253872  1
  Cu  Cu92  1  0.31469946  0.77374872  0.09127100  1
  O  O93  1  0.10151570  0.81679382  0.09431877  1
  C  C94  1  0.27469858  0.93680616  0.10578560  1
  C  C95  1  0.48601819  0.78716091  0.07170331  1
  O  O96  1  0.21584477  0.77552455  0.01909069  1
  C  C97  1  0.20528183  0.59781272  0.23421940  1
  Cu  Cu98  1  0.36141616  0.85323926  0.20165119  1
  O  O99  1  0.22439239  0.67013295  0.06554370  1
  C  C100  1  0.21936874  0.96729762  0.14325512  1
  C  C101  1  0.03948046  0.77829722  0.08211018  1
  Cu  Cu102  1  0.14865012  0.86599024  0.03479891  1
  N  N103  1  0.26107290  0.71177181  0.21278914  1
  N  N104  1  0.27735598  0.86465807  0.11340956  1
  N  N105  1  0.20929721  0.84610613  0.15805222  1
  Cu  Cu106  1  0.06352873  0.54569252  0.20023091  1
  C  C107  1  0.20401753  0.70355033  0.02507232  1
  C  C108  1  0.00269202  0.79130683  0.02947180  1
  N  N109  1  0.42152030  0.79418021  0.09708156  1
  Cu  Cu110  1  0.19668561  0.74397530  0.15856798  1
  N  N111  1  0.44290202  0.84040084  0.15499776  1
  O  O112  1  0.15057803  0.60946305  0.19999919  1
  C  C113  1  0.11785877  0.92566995  0.21175837  1
  C  C114  1  0.26824967  0.65162546  0.24086374  1
  N  N115  1  0.34505446  0.75874374  0.22655873  1
  O  O116  1  0.09829770  0.87553872  0.24560318  1
  O  O117  1  0.37758095  0.96066877  0.04595699  1
  O  O118  1  0.00632800  0.73534590  0.11515894  1
  C  C119  1  0.32395604  0.98695299  0.07083793  1
  O  O120  1  0.09596477  0.99318122  0.21140369  1
  O  O121  1  0.04321551  0.50278328  0.13581290  1
  O  O122  1  0.04097374  0.92661068  0.36546019  1
  O  O123  1  0.02631241  0.85085633  0.43563211  1
  N  N124  1  0.40348563  0.91251545  0.45781841  1
  O  O125  1  0.15715383  0.55352012  0.36299199  1
  C  C126  1  0.28480891  0.89813932  0.33483847  1
  C  C127  1  0.45702232  0.89033050  0.42138766  1
  C  C128  1  0.16773628  0.52746194  0.41071725  1
  O  O129  1  0.21347194  0.90640991  0.35404095  1
  O  O130  1  0.47699657  0.68910309  0.32729221  1
  C  C131  1  0.45198717  0.73093683  0.29410366  1
  N  N132  1  0.33654700  0.92014194  0.42987013  1
  C  C133  1  0.15673421  0.66226205  0.45293914  1
  O  O134  1  0.29879024  0.88734394  0.28814224  1
  C  C135  1  0.42505446  0.87535684  0.36988894  1
  H  H136  1  0.16046541  0.69528795  0.41550732  1
  C  C137  1  0.34669351  0.89562024  0.37769830  1
  C  C138  1  0.16344270  0.58447293  0.45828518  1
  Cu  Cu139  1  0.11802667  0.88972266  0.32290749  1
  H  H140  1  0.45213801  0.85768128  0.33245957  1
  H  H141  1  0.34984432  0.60209830  0.30455099  1
  Cu  Cu142  1  0.09670355  0.90222703  0.48006181  1
  O  O143  1  0.14179721  0.99506859  0.49111734  1
  C  C144  1  0.33475554  0.64917275  0.27319325  1
  O  O145  1  0.21080467  0.53440401  0.25752800  1
  O  O146  1  0.15199798  0.81291016  0.48246275  1
  O  O147  1  0.49456388  0.78397178  0.26948688  1
  C  C148  1  0.37565305  0.71702065  0.26423531  1
  Cu  Cu149  1  0.06079520  0.86882077  0.57991226  1
  N  N150  1  0.13530260  0.95280686  0.60681790  1
  N  N151  1  0.23130915  0.61318887  0.66585169  1
  N  N152  1  0.16245223  0.56620869  0.51137837  1
  O  O153  1  0.39621205  0.67860423  0.59823875  1
  C  C154  1  0.34579809  0.63709850  0.61060209  1
  N  N155  1  0.16428970  0.66234409  0.70170544  1
  O  O156  1  0.19649493  0.85587909  0.72552295  1
  C  C157  1  0.44661514  0.88188986  0.64532482  1
  C  C158  1  0.18852707  0.72941078  0.70050920  1
  C  C159  1  0.15441049  0.79492156  0.72556569  1
  C  C160  1  0.27886724  0.66382300  0.64757970  1
  N  N161  1  0.16029926  0.63225871  0.54174886  1
  H  H162  1  0.29173618  0.78489476  0.66408560  1
  O  O163  1  0.40629135  0.89358459  0.68316211  1
  C  C164  1  0.25960521  0.73326005  0.67021291  1
  Cu  Cu165  1  0.07702919  0.61087810  0.72670505  1
  O  O166  1  0.34732220  0.56332728  0.59525132  1
  N  N167  1  0.02914293  0.60261140  0.66074963  1
  O  O168  1  0.14343693  0.79498084  0.57028713  1
  N  N169  1  0.14152757  0.96427806  0.66100656  1
  C  C170  1  0.15407526  0.76801659  0.52259642  1
  Cu  Cu171  1  0.49836065  0.91119832  0.53981741  1
  O  O172  1  0.43869152  0.91861466  0.59673496  1
  C  C173  1  0.01176618  0.55575852  0.62233549  1
  C  C174  1  0.15629300  0.68833191  0.50785819  1
  Cu  Cu175  1  0.42721074  0.50427102  0.58430084  1
  H  H176  1  0.49685549  0.77052562  0.73165661  1
  Cu  Cu177  1  0.22909439  0.51266703  0.65757541  1
  N  N178  1  0.03651778  0.84389816  0.99595433  1
  O  O179  1  0.11983232  0.92884005  0.91874433  1
  C  C180  1  0.05345158  0.64235133  0.84842868  1
  N  N181  1  0.15515640  0.58982231  0.97203806  1
  H  H182  1  0.43837218  0.89980376  0.80694475  1
  C  C183  1  0.16123604  0.66662660  0.97796408  1
  C  C184  1  0.09546037  0.64317696  0.90137829  1
  C  C185  1  0.18313065  0.94813294  0.93882744  1
  O  O186  1  0.29810573  0.81984894  0.80029792  1
  O  O187  1  0.20717276  0.92059177  0.98266298  1
  N  N188  1  0.37705233  0.86679406  0.93112856  1
  O  O189  1  0.27513786  0.75523412  0.87707338  1
  C  C190  1  0.12131936  0.70171705  0.93457741  1
  N  N191  1  0.42916581  0.92174555  0.94097829  1
  N  N192  1  0.11925031  0.57632436  0.92459633  1
  C  C193  1  0.42280161  0.90267096  0.85034522  1
  C  C194  1  0.30872126  0.80391546  0.85334843  1
  O  O195  1  0.05722077  0.58237424  0.82375856  1
  C  C196  1  0.36970661  0.85337265  0.87692420  1
  H  H197  1  0.11679319  0.76391211  0.92380561  1
  C  C198  1  0.45929179  0.94189609  0.89226209  1
  O  O199  1  0.02204845  0.70238379  0.83151997  1
  Cu  Cu200  1  0.24058405  0.90338981  0.78754390  1
  O  O201  1  0.19077113  0.99409169  0.76887711  1
  O  O202  1  0.45958856  0.70885058  0.99438913  1
  Cu  Cu203  1  0.00404716  0.72766270  0.75671772  1
  Cu  Cu204  1  0.03347889  0.99701684  0.91539780  1
  O  O205  1  0.09240408  0.79146791  0.75192726  1
  O  O206  1  0.85017783  0.38174101  0.22497765  1
  C  C207  1  0.98017864  0.46835599  0.12804926  1
  N  N208  1  0.75423897  0.29541598  0.15108308  1
  Cu  Cu209  1  0.78361718  0.39649361  0.10312859  1
  Cu  Cu210  1  0.91147557  0.34361789  0.07901724  1
  N  N211  1  0.75608204  0.41540807  0.03402968  1
  C  C212  1  0.77785193  0.27082594  0.20027470  1
  N  N213  1  0.70315396  0.24323635  0.13325282  1
  C  C214  1  0.68350032  0.19434563  0.17328584  1
  C  C215  1  0.73070665  0.20937423  0.21830405  1
  O  O216  1  0.57840706  0.13464994  0.12882889  1
  C  C217  1  0.62303862  0.13052054  0.16575626  1
  O  O218  1  0.88345021  0.05273694  0.21004569  1
  Cu  Cu219  1  0.52238919  0.04695638  0.22892500  1
  O  O220  1  0.61811179  0.07678706  0.20227016  1
  N  N221  1  0.70177137  0.49023426  0.02093007  1
  N  N222  1  0.83862060  0.48493988  0.11225363  1
  C  C223  1  0.83125204  0.31976868  0.23652111  1
  Cu  Cu224  1  0.99267100  0.02490995  0.20592025  1
  O  O225  1  0.97509366  0.39729012  0.12875854  1
  O  O226  1  0.84772726  0.29537943  0.02601020  1
  C  C227  1  0.52778981  0.10523105  0.35809465  1
  C  C228  1  0.63037908  0.03562712  0.37827484  1
  C  C229  1  0.84974153  0.05236770  0.35496308  1
  N  N230  1  0.95943972  0.07490127  0.30831147  1
  C  C231  1  0.88457932  0.05524528  0.30314582  1
  C  C232  1  0.57544301  0.08684443  0.40186231  1
  N  N233  1  0.61461452  0.02415211  0.32610914  1
  H  H234  1  0.56883593  0.09561066  0.44574991  1
  O  O235  1  0.97545648  0.11185825  0.47151497  1
  O  O236  1  0.85777749  0.29236164  0.28266087  1
  N  N237  1  0.97430964  0.08456371  0.36163978  1
  C  C238  1  0.91218838  0.08970533  0.45136785  1
  H  H239  1  0.78425039  0.04852843  0.36097418  1
  O  O240  1  0.85006069  0.08382611  0.47787533  1
  Cu  Cu241  1  0.96066251  0.27225355  0.29515700  1
  N  N242  1  0.55312714  0.06848516  0.31258897  1
  H  H243  1  0.90513570  0.42880022  0.36253650  1
  C  C244  1  0.90881812  0.07471047  0.39233811  1
  O  O245  1  0.94023906  0.26739773  0.37118021  1
  C  C246  1  0.93853328  0.42862292  0.40038244  1
  O  O247  1  0.70636941  0.01517409  0.45908262  1
  C  C248  1  0.96059916  0.49301268  0.42911694  1
  O  O249  1  0.77075566  0.02907998  0.25122953  1
  C  C250  1  0.98336645  0.29131995  0.41109522  1
  C  C251  1  0.98097831  0.37033955  0.42597519  1
  C  C252  1  0.84251504  0.04183115  0.25131225  1
  H  H253  1  0.73995917  0.18308218  0.25813581  1
  O  O254  1  0.66924819  0.39962772  0.69481415  1
  Cu  Cu255  1  0.60607525  0.38621978  0.63280491  1
  O  O256  1  0.61512963  0.27897976  0.64849572  1
  C  C257  1  0.56870382  0.23477796  0.67316875  1
  C  C258  1  0.65114392  0.44119547  0.73943587  1
  O  O259  1  0.54133719  0.36784550  0.57264579  1
  H  H260  1  0.56922418  0.22848615  0.57377171  1
  O  O261  1  0.59677314  0.49129372  0.61741225  1
  C  C262  1  0.58263982  0.22085723  0.72991035  1
  O  O263  1  0.56869089  0.06072807  0.57767132  1
  C  C264  1  0.51757327  0.06895376  0.54626416  1
  O  O265  1  0.51686982  0.19932958  0.64678849  1
  C  C266  1  0.50643457  0.21256879  0.58126105  1
  O  O267  1  0.96442740  0.48156577  0.86481141  1
  O  O268  1  0.95353159  0.06106775  0.89529030  1
  O  O269  1  0.84027213  0.30066724  0.93464679  1
  O  O270  1  0.72395286  0.24108513  0.86493331  1
  H  H271  1  0.97934753  0.29128380  0.91480984  1
  Cu  Cu272  1  0.80925770  0.20785367  0.90289326  1
  N  N273  1  0.52469963  0.18052410  0.75554085  1
  O  O274  1  0.63751352  0.16933050  0.90656096  1
  H  H275  1  0.74584045  0.43175819  0.90206105  1
  O  O276  1  0.94279237  0.39245124  0.80633187  1
  C  C277  1  0.65960121  0.20665074  0.86594527  1
  C  C278  1  0.82299418  0.32446536  0.98157677  1
  N  N279  1  0.54489197  0.16935195  0.80733678  1
  C  C280  1  0.61299372  0.20859711  0.81627768  1
  C  C281  1  0.95067290  0.13097360  0.90266925  1
  C  C282  1  0.63956612  0.24227815  0.76908554  1
  O  O283  1  0.89879727  0.16289370  0.93190315  1
  O  O284  1  0.54849924  0.04227854  0.91655448  1
  C  C285  1  0.77784394  0.39286205  0.98579995  1
  C  C286  1  0.74584668  0.43972580  0.94540943  1
  Cu  Cu287  1  0.53675857  0.15268526  0.91831659  1
  C  C288  1  0.92022459  0.44781571  0.82705734  1
  C  C289  1  0.79085332  0.43219980  0.77523764  1
  C  C290  1  0.72196625  0.47365901  0.77171640  1
  C  C291  1  0.84031162  0.47176392  0.81010249  1
  O  O292  1  0.52543561  0.01184180  0.83108277  1
  H  H293  1  0.80460511  0.38033146  0.75306688  1
  H  H294  1  0.69271660  0.27677727  0.76285374  1
  C  C295  1  0.51691365  0.00146043  0.88098712  1
  O  O296  1  0.58478173  0.44976468  0.75200031  1
  C  C297  1  0.64540676  0.63032556  0.23270749  1
  C  C298  1  0.51510359  0.85884895  0.14880858  1
  O  O299  1  0.95199571  0.72684086  0.22460936  1
  Cu  Cu300  1  0.92402641  0.77829086  0.15984514  1
  C  C301  1  0.82887621  0.61480042  0.10850451  1
  O  O302  1  0.97536727  0.97492538  0.13886822  1
  H  H303  1  0.79003780  0.85612610  0.07242952  1
  N  N304  1  0.78533019  0.55796406  0.10159522  1
  O  O305  1  0.90062807  0.87837184  0.15789470  1
  C  C306  1  0.88879063  0.94040332  0.07172576  1
  O  O307  1  0.63798582  0.90767135  0.17367093  1
  H  H308  1  0.60325134  0.83615344  0.08600794  1
  O  O309  1  0.84455331  0.75148884  0.10642286  1
  O  O310  1  0.72818053  0.70115379  0.10441435  1
  C  C311  1  0.79641847  0.69455849  0.10668884  1
  O  O312  1  0.61670657  0.69536277  0.21616484  1
  C  C313  1  0.79325083  0.67367967  0.23990490  1
  C  C314  1  0.90620815  0.59099194  0.11731420  1
  C  C315  1  0.56479381  0.90284353  0.18574753  1
  H  H316  1  0.89975605  0.71396127  0.01706310  1
  C  C317  1  0.54408036  0.83052204  0.09975283  1
  Cu  Cu318  1  0.67925173  0.53913441  0.08507265  1
  H  H319  1  0.95550347  0.62550087  0.12210338  1
  C  C320  1  0.82354739  0.89920771  0.05207403  1
  C  C321  1  0.92082003  0.93134857  0.12372646  1
  C  C322  1  0.94317556  0.65628909  0.23765409  1
  Cu  Cu323  1  0.70986333  0.96711024  0.21041302  1
  C  C324  1  0.90743592  0.51108963  0.12013514  1
  O  O325  1  0.53853899  0.93842692  0.22390363  1
  H  H326  1  0.78657240  0.73683907  0.23704780  1
  O  O327  1  0.76511562  0.87782591  0.24227112  1
  O  O328  1  0.60217026  0.58077229  0.24675346  1
  C  C329  1  0.94060541  0.75746158  0.00115529  1
  C  C330  1  0.86259765  0.63244447  0.24366417  1
  C  C331  1  0.73177043  0.62025763  0.23871408  1
  N  N332  1  0.90358729  0.99505832  0.03294900  1
  C  C333  1  0.50167030  0.75239939  0.01724562  1
  N  N334  1  0.76477971  0.55258447  0.24860348  1
  O  O335  1  0.99811003  0.61285834  0.24301640  1
  O  O336  1  0.57428077  0.76413076  0.00368303  1
  O  O337  1  0.94904151  0.63328584  0.44988586  1
  O  O338  1  0.72301829  0.94277674  0.38681232  1
  N  N339  1  0.88510760  0.80262326  0.39602391  1
  C  C340  1  0.92592237  0.85564080  0.36776962  1
  C  C341  1  0.74947211  0.84319554  0.28518565  1
  Cu  Cu342  1  0.69584838  0.84922595  0.40870663  1
  Cu  Cu343  1  0.87907644  0.71741541  0.45723741  1
  O  O344  1  0.58629104  0.87014357  0.39315717  1
  O  O345  1  0.90857567  0.58186542  0.37552634  1
  O  O346  1  0.69077751  0.80444306  0.29249835  1
  N  N347  1  0.81730898  0.79262852  0.36794684  1
  H  H348  1  0.90761972  0.91742580  0.28716401  1
  O  O349  1  0.78459076  0.76167997  0.47620324  1
  C  C350  1  0.81963949  0.83761455  0.32368174  1
  C  C351  1  0.88815792  0.87879047  0.31888040  1
  C  C352  1  0.93448673  0.57501794  0.41972323  1
  C  C353  1  0.54229873  0.89107578  0.43123355  1
  C  C354  1  0.99952649  0.88017583  0.39150207  1
  O  O355  1  0.66817109  0.75338520  0.43754047  1
  C  C356  1  0.71798618  0.72910720  0.47049527  1
  C  C357  1  0.68932223  0.99672331  0.41146712  1
  Cu  Cu358  1  0.80162885  0.98978693  0.49743554  1
  O  O359  1  0.56485298  0.90167922  0.47875390  1
  Cu  Cu360  1  0.59823001  0.78036669  0.25700313  1
  N  N361  1  0.84205966  0.56036182  0.25481668  1
  H  H362  1  0.58543841  0.63539073  0.47876884  1
  C  C363  1  0.64123087  0.68772434  0.71212870  1
  N  N364  1  0.62635813  0.77651893  0.63107768  1
  H  H365  1  0.94446345  0.56595164  0.54370011  1
  O  O366  1  0.51519655  0.52232253  0.54980281  1
  C  C367  1  0.63136205  0.62445951  0.50533362  1
  C  C368  1  0.90174785  0.72664088  0.57023144  1
  N  N369  1  0.97436739  0.67581984  0.64293039  1
  O  O370  1  0.93120660  0.74425097  0.52592929  1
  O  O371  1  0.84194242  0.74436915  0.69713721  1
  C  C372  1  0.64001259  0.57280388  0.54803698  1
  C  C373  1  0.86806253  0.94926166  0.67091377  1
  N  N374  1  0.75336737  0.63342286  0.54047143  1
  Cu  Cu375  1  0.77365308  0.70720626  0.64405562  1
  N  N376  1  0.74027952  0.95620417  0.64942357  1
  N  N377  1  0.56965150  0.82172833  0.61247202  1
  O  O378  1  0.84430032  0.75191921  0.59354124  1
  H  H379  1  0.92571149  0.94875002  0.69267860  1
  C  C380  1  0.60598219  0.74835660  0.68117855  1
  H  H381  1  0.71165992  0.81395484  0.73324006  1
  C  C382  1  0.53586767  0.78233689  0.69499147  1
  C  C383  1  0.85620869  0.94913576  0.61458348  1
  C  C384  1  0.96157274  0.58946049  0.58314213  1
  C  C385  1  0.94456324  0.66386189  0.60153926  1
  O  O386  1  0.98877888  0.94466800  0.58943618  1
  N  N387  1  0.71411534  0.57987744  0.56743652  1
  O  O388  1  0.70265630  0.66102043  0.68948158  1
  O  O389  1  0.89455320  0.94852414  0.52575829  1
  C  C390  1  0.79167954  0.95203927  0.69190389  1
  C  C391  1  0.91855466  0.94447612  0.57472961  1
  C  C392  1  0.58256489  0.52457126  0.57358201  1
  C  C393  1  0.84869562  0.70559604  0.74144077  1
  N  N394  1  0.77988136  0.95689181  0.60249235  1
  C  C395  1  0.76059375  0.94351868  0.74666534  1
  C  C396  1  0.51353954  0.83009651  0.65103055  1
  C  C397  1  0.70310509  0.66431480  0.50510379  1
  O  O398  1  0.68684011  0.94173574  0.74804719  1
  C  C399  1  0.75287469  0.89634162  0.96204580  1
  O  O400  1  0.80475539  0.93431731  0.78733365  1
  C  C401  1  0.66622787  0.56628340  0.94043545  1
  O  O402  1  0.70873477  0.84308984  0.97800646  1
  Cu  Cu403  1  0.70542635  0.72240278  0.92857491  1
  N  N404  1  0.71439607  0.74640493  0.85668491  1
  C  C405  1  0.93474304  0.79734315  0.95231048  1
  O  O406  1  0.74934940  0.92313719  0.91421615  1
  Cu  Cu407  1  0.82966737  0.62297074  0.86250302  1
  C  C408  1  0.68183227  0.78758240  0.82005039  1
  N  N409  1  0.78348149  0.69827988  0.82365776  1
  O  O410  1  0.61260993  0.59488371  0.96187019  1
  N  N411  1  0.72125338  0.53469882  0.80043164  1
  C  C412  1  0.87595056  0.78554005  0.91021561  1
  C  C413  1  0.78568694  0.72970898  0.77612353  1
  Cu  Cu414  1  0.61022477  0.82715850  0.94876216  1
  Cu  Cu415  1  0.78098648  0.87507688  0.84869232  1
  C  C416  1  0.61091137  0.82821785  0.83331845  1
  O  O417  1  0.69607384  0.59178711  0.89437056  1
  O  O418  1  0.83055644  0.73241897  0.91951284  1
  O  O419  1  0.58565931  0.87075111  0.79453788  1
  O  O420  1  0.91121127  0.67460514  0.75575271  1
  Cu  Cu421  1  0.65809374  0.62595760  0.82275150  1
  C  C422  1  0.72309703  0.77982494  0.76986074  1
  C  C423  1  0.70525915  0.50052578  0.96963702  1
  O  O424  1  0.87404155  0.82525139  0.86789486  1
  Cu  Cu425  1  0.60860350  0.97621484  0.78660586  1
  O  O426  1  0.57321005  0.82671788  0.87672158  1
  N  N427  1  0.80820482  0.53677293  0.82437515  1
  N  N428  1  0.86067353  0.98268983  0.98845973  1
  C  C429  1  0.80945257  0.92624564  0.99960580  1
  N  N430  1  0.99283169  0.84811138  0.95031511  1
  O  O431  1  0.61520128  0.66203563  0.75618925  1
