# generated using pymatgen
data_CuH2(C3O2)2
_symmetry_space_group_name_H-M   'P 1'
_cell_length_a   21.57611849
_cell_length_b   25.16094030
_cell_length_c   19.25533017
_cell_angle_alpha   90.00000000
_cell_angle_beta   90.00000000
_cell_angle_gamma   90.00000000
_symmetry_Int_Tables_number   1
_chemical_formula_structural   CuH2(C3O2)2
_chemical_formula_sum   'Cu48 H96 C288 O192'
_cell_volume   10453.24562686
_cell_formula_units_Z   48
loop_
 _symmetry_equiv_pos_site_id
 _symmetry_equiv_pos_as_xyz
  1  'x, y, z'
loop_
 _atom_site_type_symbol
 _atom_site_label
 _atom_site_symmetry_multiplicity
 _atom_site_fract_x
 _atom_site_fract_y
 _atom_site_fract_z
 _atom_site_occupancy
  O  O0  1  0.18224265  0.13991548  0.06461922  1
  Cu  Cu1  1  0.12125038  0.16075795  0.13575309  1
  H  H2  1  0.07857587  0.06277939  0.09112874  1
  O  O3  1  0.45105367  0.43920224  0.04781958  1
  C  C4  1  0.48240305  0.24475699  0.17419387  1
  C  C5  1  0.15952788  0.11125763  0.01719052  1
  C  C6  1  0.05206055  0.04082400  0.12913786  1
  H  H7  1  0.47673994  0.27940132  0.14019099  1
  C  C8  1  0.44882052  0.23662103  0.23337696  1
  C  C9  1  0.00781020  0.06462843  0.17218168  1
  O  O10  1  0.03597995  0.14992529  0.12968702  1
  O  O11  1  0.38350562  0.31031171  0.20298820  1
  C  C12  1  0.46321400  0.45758197  0.21555330  1
  H  H13  1  0.11088979  0.20979686  0.01964199  1
  O  O14  1  0.15111765  0.15682907  0.22560175  1
  C  C15  1  0.49175918  0.40736736  0.02070052  1
  Cu  Cu16  1  0.22116416  0.01058062  0.01408856  1
  C  C17  1  0.39398244  0.27465805  0.24217395  1
  H  H18  1  0.10689965  0.09032506  0.29580077  1
  H  H19  1  0.41701651  0.19543105  0.32694845  1
  C  C20  1  0.25820125  0.06880733  0.40435891  1
  H  H21  1  0.24984882  0.43740402  0.38042210  1
  C  C22  1  0.44879498  0.19535785  0.28080880  1
  H  H23  1  0.04885779  0.45920969  0.35760046  1
  C  C24  1  0.48160059  0.36447693  0.28601599  1
  C  C25  1  0.25583502  0.10978350  0.35462980  1
  Cu  Cu26  1  0.44931305  0.05451313  0.42429327  1
  H  H27  1  0.29732861  0.13715567  0.35136919  1
  C  C28  1  0.14816071  0.08177518  0.32595949  1
  C  C29  1  0.20132878  0.11273566  0.31829652  1
  O  O30  1  0.36629485  0.08461173  0.43946386  1
  H  H31  1  0.20453752  0.00605821  0.46107234  1
  O  O32  1  0.32860434  0.27293626  0.47292118  1
  C  C33  1  0.31455207  0.06253820  0.44524650  1
  O  O34  1  0.47409933  0.11298834  0.37198270  1
  C  C35  1  0.38720371  0.37451098  0.35390711  1
  C  C36  1  0.20778001  0.46437317  0.37921543  1
  C  C37  1  0.15431813  0.04628756  0.38045363  1
  O  O38  1  0.09391140  0.27393152  0.45029431  1
  H  H39  1  0.20586576  0.27127684  0.48240125  1
  H  H40  1  0.37856895  0.46827571  0.28112958  1
  Cu  Cu41  1  0.34253955  0.27372785  0.38175251  1
  C  C42  1  0.09565356  0.47494595  0.36973207  1
  C  C43  1  0.14810386  0.44354535  0.37852700  1
  Cu  Cu44  1  0.03219634  0.32115655  0.42652558  1
  Cu  Cu45  1  0.34155264  0.44611559  0.44551053  1
  O  O46  1  0.35444520  0.25758392  0.28762262  1
  C  C47  1  0.13917142  0.38423785  0.37903165  1
  O  O48  1  0.39922482  0.33287454  0.38845750  1
  O  O49  1  0.18453558  0.35838836  0.38944106  1
  O  O50  1  0.33900354  0.40188145  0.36990573  1
  O  O51  1  0.08291448  0.36383134  0.37509610  1
  C  C52  1  0.42987530  0.39481314  0.30194696  1
  C  C53  1  0.42089623  0.44282029  0.26827683  1
  H  H54  1  0.49046092  0.32620496  0.31308533  1
  C  C55  1  0.20649846  0.03717885  0.42092386  1
  C  C56  1  0.09398519  0.23359739  0.49703407  1
  O  O57  1  0.04591652  0.02054419  0.38165231  1
  C  C58  1  0.10082736  0.01103704  0.40745515  1
  C  C59  1  0.49562932  0.15872270  0.26594435  1
  C  C60  1  0.20231688  0.15633508  0.26291159  1
  O  O61  1  0.30706815  0.02990744  0.49416936  1
  O  O62  1  0.24276777  0.18736932  0.25467407  1
  C  C63  1  0.32475052  0.44232472  0.71091033  1
  C  C64  1  0.20901809  0.08123716  0.59685446  1
  O  O65  1  0.39356872  0.21981819  0.67344499  1
  O  O66  1  0.15646633  0.06056450  0.61253273  1
  C  C67  1  0.27229456  0.47457402  0.72037804  1
  C  C68  1  0.20911192  0.13307292  0.56436058  1
  O  O69  1  0.25891891  0.05942704  0.61852776  1
  H  H70  1  0.42553171  0.43219570  0.71827003  1
  C  C71  1  0.26619835  0.15734610  0.55426993  1
  C  C72  1  0.38501568  0.45624340  0.72765720  1
  Cu  Cu73  1  0.12519498  0.04648751  0.70860676  1
  H  H74  1  0.31247659  0.14061091  0.56703815  1
  H  H75  1  0.10845214  0.13868483  0.55735075  1
  O  O76  1  0.03643072  0.06413070  0.70864129  1
  H  H77  1  0.28504991  0.19444267  0.70012788  1
  O  O78  1  0.46858330  0.18024526  0.73161811  1
  H  H79  1  0.01524976  0.41222824  0.68136642  1
  Cu  Cu80  1  0.42403892  0.37711877  0.59193192  1
  C  C81  1  0.00356996  0.22525827  0.71380157  1
  H  H82  1  0.22317490  0.46565512  0.70888423  1
  O  O83  1  0.27160993  0.37839619  0.64107274  1
  O  O84  1  0.41875054  0.02029869  0.57621835  1
  C  C85  1  0.00379435  0.08366886  0.66121027  1
  O  O86  1  0.48454094  0.32991408  0.62167021  1
  O  O87  1  0.04773386  0.21344857  0.51732043  1
  O  O88  1  0.36969441  0.36244384  0.65899901  1
  C  C89  1  0.15357110  0.20797088  0.51878072  1
  C  C90  1  0.41227231  0.18331410  0.71466731  1
  Cu  Cu91  1  0.43513613  0.23937412  0.58938904  1
  C  C92  1  0.32012386  0.39152309  0.66682091  1
  O  O93  1  0.43812450  0.43723050  0.54917592  1
  C  C94  1  0.26554261  0.20759403  0.52378710  1
  Cu  Cu95  1  0.33431531  0.03386421  0.59350076  1
  O  O96  1  0.49432425  0.27307809  0.53841839  1
  C  C97  1  0.15229946  0.15803260  0.54918632  1
  O  O98  1  0.37419718  0.20779352  0.53276921  1
  C  C99  1  0.01850887  0.17113090  0.71352843  1
  C  C100  1  0.36097688  0.14825453  0.73696788  1
  C  C101  1  0.32500311  0.23090027  0.50925443  1
  O  O102  1  0.18252921  0.19218829  0.72753651  1
  C  C103  1  0.29943456  0.16060896  0.73070564  1
  O  O104  1  0.34977439  0.47746143  0.52845298  1
  C  C105  1  0.40154729  0.47668696  0.55511757  1
  C  C106  1  0.18931836  0.14263101  0.74577247  1
  H  H107  1  0.05331759  0.15089103  0.74581432  1
  C  C108  1  0.20942087  0.23252374  0.50520936  1
  H  H109  1  0.23433433  0.04385782  0.78423482  1
  C  C110  1  0.02311867  0.19433074  0.96662046  1
  C  C111  1  0.37689208  0.09772111  0.76466588  1
  C  C112  1  0.45855413  0.33185481  0.82132948  1
  O  O113  1  0.07911249  0.22842842  0.79884474  1
  O  O114  1  0.45650857  0.28130030  0.80434343  1
  H  H115  1  0.34629280  0.29480532  0.80114686  1
  C  C116  1  0.06143512  0.08843332  0.95984558  1
  H  H117  1  0.08020338  0.04767687  0.95358557  1
  C  C118  1  0.35748420  0.00744226  0.80240367  1
  C  C119  1  0.40070365  0.35872251  0.84567814  1
  C  C120  1  0.07834761  0.17895200  0.99821078  1
  H  H121  1  0.45281031  0.42864792  0.88978477  1
  C  C122  1  0.35302007  0.48486114  0.92861147  1
  O  O123  1  0.49566173  0.49362121  0.77919353  1
  C  C124  1  0.40793855  0.40888874  0.87667518  1
  O  O125  1  0.23045868  0.28446873  0.80936407  1
  C  C126  1  0.03885747  0.25567701  0.76785922  1
  C  C127  1  0.23287590  0.33117235  0.83551502  1
  C  C128  1  0.29124866  0.41025072  0.88097662  1
  H  H129  1  0.24836742  0.43406527  0.88608738  1
  C  C130  1  0.29103916  0.35828438  0.85114786  1
  C  C131  1  0.35069034  0.42846758  0.89372530  1
  C  C132  1  0.33056170  0.06061684  0.77890059  1
  Cu  Cu133  1  0.10370439  0.33809211  0.80947852  1
  C  C134  1  0.34605075  0.33056074  0.83546441  1
  O  O135  1  0.18398772  0.35733142  0.84693823  1
  O  O136  1  0.08987309  0.40610946  0.76623632  1
  C  C137  1  0.00306383  0.25278866  0.96458196  1
  C  C138  1  0.26931298  0.07324010  0.77397960  1
  C  C139  1  0.07292348  0.45024207  0.78934491  1
  O  O140  1  0.04165600  0.28516716  0.97814950  1
  O  O141  1  0.19153916  0.07405725  0.99070400  1
  C  C142  1  0.09874373  0.12692389  0.99032038  1
  O  O143  1  0.10163479  0.47422187  0.83736962  1
  Cu  Cu144  1  0.16092132  0.24229584  0.79518324  1
  O  O145  1  0.03462967  0.30535549  0.76906869  1
  H  H146  1  0.42507414  0.08573023  0.77782137  1
  O  O147  1  0.14176084  0.11384513  0.75429440  1
  C  C148  1  0.25332864  0.12480383  0.75144974  1
  C  C149  1  0.01483966  0.47172821  0.76011565  1
  C  C150  1  0.00459983  0.10454784  0.93234648  1
  O  O151  1  0.47703429  0.36563886  0.99453413  1
  C  C152  1  0.10841739  0.63838854  0.20390301  1
  C  C153  1  0.15936294  0.66606251  0.22784831  1
  H  H154  1  0.11321493  0.59751061  0.18654539  1
  C  C155  1  0.44733787  0.50848644  0.18023880  1
  C  C156  1  0.45366183  0.65904161  0.12968557  1
  C  C157  1  0.46948634  0.69260943  0.18572441  1
  C  C158  1  0.05175115  0.72326303  0.21122929  1
  H  H159  1  0.40926411  0.63925856  0.12429749  1
  C  C160  1  0.05290846  0.66822050  0.19530395  1
  C  C161  1  0.10369068  0.74981962  0.23148866  1
  O  O162  1  0.42653525  0.58790428  0.02641436  1
  O  O163  1  0.17418968  0.80273797  0.09497740  1
  C  C164  1  0.13424067  0.77597652  0.05799795  1
  O  O165  1  0.08246846  0.76789818  0.07757664  1
  O  O166  1  0.13557333  0.99517368  0.04474677  1
  C  C167  1  0.48845466  0.66017594  0.06904238  1
  C  C168  1  0.43009985  0.86604822  0.08464717  1
  O  O169  1  0.25813512  0.94177275  0.03995944  1
  Cu  Cu170  1  0.16322860  0.86724094  0.14294844  1
  O  O171  1  0.23177560  0.92264296  0.14612380  1
  H  H172  1  0.36313930  0.90605005  0.01647925  1
  O  O173  1  0.40257424  0.53230921  0.19918566  1
  C  C174  1  0.47023059  0.62109292  0.01737112  1
  C  C175  1  0.11046441  0.80722062  0.24104993  1
  C  C176  1  0.37408841  0.89272528  0.06859805  1
  C  C177  1  0.27234060  0.92650665  0.10044430  1
  C  C178  1  0.10864196  0.96307799  0.08564312  1
  C  C179  1  0.35020937  0.89739545  0.19171331  1
  H  H180  1  0.31812064  0.90653128  0.23385791  1
  H  H181  1  0.03171225  0.91256782  0.18680585  1
  C  C182  1  0.47477528  0.84906952  0.02606193  1
  O  O183  1  0.11235184  0.91435304  0.08514567  1
  C  C184  1  0.02750787  0.95682802  0.18268340  1
  C  C185  1  0.15996020  0.72149708  0.23571570  1
  C  C186  1  0.40771286  0.87183282  0.20528593  1
  C  C187  1  0.33248129  0.90412899  0.12286017  1
  O  O188  1  0.16042006  0.83127405  0.22710399  1
  C  C189  1  0.44942928  0.85750934  0.15132984  1
  H  H190  1  0.49486972  0.83944747  0.16073893  1
  O  O191  1  0.47585547  0.52465184  0.12266085  1
  Cu  Cu192  1  0.43781842  0.51407898  0.03615410  1
  C  C193  1  0.06110230  0.98548612  0.13313512  1
  H  H194  1  0.00894878  0.74481565  0.20513505  1
  O  O195  1  0.38410644  0.65614970  0.24420087  1
  C  C196  1  0.21418196  0.62956237  0.23833111  1
  O  O197  1  0.01039734  0.58741794  0.16407166  1
  O  O198  1  0.21704224  0.58319391  0.22956745  1
  H  H199  1  0.19884980  0.74412912  0.24789581  1
  C  C200  1  0.43037867  0.68679806  0.24751811  1
  C  C201  1  0.00060115  0.63815099  0.16707802  1
  O  O202  1  0.32357830  0.50648684  0.38431828  1
  Cu  Cu203  1  0.42893147  0.66531779  0.38359588  1
  C  C204  1  0.41991700  0.85961089  0.27986890  1
  O  O205  1  0.00205116  0.54426197  0.32371913  1
  C  C206  1  0.28084983  0.54131764  0.38021581  1
  C  C207  1  0.16598940  0.55253529  0.37391603  1
  H  H208  1  0.17166264  0.59728003  0.37374208  1
  O  O209  1  0.28705291  0.59023188  0.37861426  1
  O  O210  1  0.06036851  0.60989425  0.35672475  1
  C  C211  1  0.05432957  0.56379185  0.34986296  1
  Cu  Cu212  1  0.33283184  0.62615680  0.31363516  1
  O  O213  1  0.35679657  0.69733067  0.41281059  1
  C  C214  1  0.35127081  0.72270987  0.46704203  1
  O  O215  1  0.44434025  0.70865291  0.30492437  1
  H  H216  1  0.48527789  0.90101619  0.47509408  1
  O  O217  1  0.26487846  0.65462244  0.26527562  1
  O  O218  1  0.08818719  0.80970166  0.41942103  1
  O  O219  1  0.47532103  0.83558458  0.29127883  1
  C  C220  1  0.10896998  0.52868803  0.36647498  1
  H  H221  1  0.24040525  0.72644796  0.39136368  1
  C  C222  1  0.21845111  0.51903868  0.37639393  1
  C  C223  1  0.23624197  0.74307150  0.44328157  1
  O  O224  1  0.38651444  0.87195359  0.32709436  1
  C  C225  1  0.13029973  0.77303515  0.41410624  1
  C  C226  1  0.18378677  0.76879809  0.46699968  1
  Cu  Cu227  1  0.02438041  0.84041967  0.35436328  1
  O  O228  1  0.12833074  0.74058115  0.36948951  1
  C  C229  1  0.28891128  0.74199244  0.48673686  1
  O  O230  1  0.06408772  0.83271106  0.26132155  1
  O  O231  1  0.44900217  0.99225507  0.47476303  1
  O  O232  1  0.10857182  0.98463221  0.45680417  1
  C  C233  1  0.35241019  0.65046249  0.66424077  1
  O  O234  1  0.29932934  0.63797528  0.65675588  1
  C  C235  1  0.37705745  0.56222219  0.61749445  1
  C  C236  1  0.39850215  0.60962203  0.64648181  1
  O  O237  1  0.36679545  0.69982319  0.68285036  1
  H  H238  1  0.32709614  0.55421767  0.60614066  1
  C  C239  1  0.42132433  0.52578788  0.59247734  1
  H  H240  1  0.47299760  0.66236123  0.67929205  1
  C  C241  1  0.46057238  0.62147653  0.65961916  1
  H  H242  1  0.04475139  0.95546866  0.57820828  1
  H  H243  1  0.06850292  0.82260670  0.72056692  1
  C  C244  1  0.01108670  0.82058209  0.55781096  1
  C  C245  1  0.45612496  0.93373228  0.57333425  1
  C  C246  1  0.05355134  0.83820120  0.67079589  1
  C  C247  1  0.03788515  0.91381965  0.59316995  1
  C  C248  1  0.44060535  0.98297289  0.53880252  1
  C  C249  1  0.03036941  0.80124417  0.62161831  1
  H  H250  1  0.48739018  0.78934681  0.63920300  1
  O  O251  1  0.39502639  0.72559551  0.51285271  1
  C  C252  1  0.45319978  0.87062137  0.66694885  1
  O  O253  1  0.04694076  0.71952445  0.67998691  1
  C  C254  1  0.18235042  0.79084384  0.53225754  1
  O  O255  1  0.28359598  0.79948445  0.68793468  1
  C  C256  1  0.28893466  0.76338059  0.55367274  1
  H  H257  1  0.13809283  0.80969730  0.55088894  1
  H  H258  1  0.33034311  0.76150658  0.58734145  1
  C  C259  1  0.48340021  0.53378317  0.60789059  1
  C  C260  1  0.08897436  0.93038755  0.70413080  1
  H  H261  1  0.42373154  0.95233206  0.67615517  1
  C  C262  1  0.47757541  0.83027913  0.62309829  1
  C  C263  1  0.23155324  0.80539063  0.64965850  1
  C  C264  1  0.23428399  0.78847700  0.57565048  1
  C  C265  1  0.44308180  0.92211676  0.64268990  1
  O  O266  1  0.18579886  0.82334659  0.67358568  1
  Cu  Cu267  1  0.31013377  0.74214970  0.73771677  1
  C  C268  1  0.49257443  0.84286738  0.55453163  1
  C  C269  1  0.05952062  0.89153352  0.65384568  1
  C  C270  1  0.47845880  0.89245064  0.52908350  1
  O  O271  1  0.10218990  0.97679684  0.67821360  1
  O  O272  1  0.01048914  0.71759685  0.57297529  1
  C  C273  1  0.43559122  0.85625465  0.73784595  1
  C  C274  1  0.02807662  0.74133875  0.62838207  1
  C  C275  1  0.01286725  0.87535477  0.54767615  1
  Cu  Cu276  1  0.47262969  0.69159815  0.50622415  1
  C  C277  1  0.08597700  0.64501933  0.87476101  1
  C  C278  1  0.12904834  0.68290591  0.90386070  1
  C  C279  1  0.19045122  0.68964655  0.87909736  1
  O  O280  1  0.32499118  0.97726312  0.83138996  1
  C  C281  1  0.22626635  0.72866139  0.90661897  1
  O  O282  1  0.03161791  0.64175833  0.89773211  1
  C  C283  1  0.10910011  0.71392435  0.96073874  1
  C  C284  1  0.34153902  0.54078964  0.77017009  1
  Cu  Cu285  1  0.10371430  0.54917685  0.82564698  1
  O  O286  1  0.42666837  0.89439869  0.77790626  1
  O  O287  1  0.23717205  0.60015142  0.79717594  1
  Cu  Cu288  1  0.47288731  0.95123525  0.81843471  1
  C  C289  1  0.15085124  0.74893743  0.98990180  1
  O  O290  1  0.29476713  0.70992627  0.82019003  1
  Cu  Cu291  1  0.39100999  0.78397862  0.82769433  1
  O  O292  1  0.33058987  0.76602682  0.89690815  1
  C  C293  1  0.28916858  0.73572026  0.87577899  1
  H  H294  1  0.24289684  0.78981492  0.98300341  1
  C  C295  1  0.20856579  0.75956945  0.96436745  1
  H  H296  1  0.20967251  0.66248857  0.83458857  1
  O  O297  1  0.43790549  0.80742424  0.75731876  1
  O  O298  1  0.46261585  0.85357551  0.96658697  1
  O  O299  1  0.10404460  0.61790519  0.82149901  1
  O  O300  1  0.46026069  0.57361183  0.79378103  1
  C  C301  1  0.45234030  0.52346322  0.78183298  1
  Cu  Cu302  1  0.48197860  0.60196261  0.87408342  1
  O  O303  1  0.44822307  0.73263763  0.86999245  1
  C  C304  1  0.38844569  0.50513286  0.76134828  1
  H  H305  1  0.34969531  0.58068440  0.78610108  1
  C  C306  1  0.22777828  0.55758654  0.77031594  1
  O  O307  1  0.17142266  0.54001250  0.76117671  1
  H  H308  1  0.06559372  0.70542257  0.98785833  1
  O  O309  1  0.30495132  0.50497277  0.94568240  1
  C  C310  1  0.49990606  0.71580652  0.84886205  1
  O  O311  1  0.41703928  0.99953622  0.79254974  1
  O  O312  1  0.40595754  0.50246817  0.94369240  1
  C  C313  1  0.28156262  0.52216760  0.75291299  1
  O  O314  1  0.10483294  0.91966613  0.76145440  1
  Cu  Cu315  1  0.86993703  0.15546420  0.15654536  1
  Cu  Cu316  1  0.71651635  0.11553038  0.13126580  1
  O  O317  1  0.95220046  0.14398034  0.19301819  1
  O  O318  1  0.84323527  0.17728542  0.06408555  1
  O  O319  1  0.60182106  0.17462795  0.08608473  1
  C  C320  1  0.57361742  0.21206069  0.10453214  1
  C  C321  1  0.78717284  0.18011135  0.05177833  1
  O  O322  1  0.74610427  0.17985783  0.09908824  1
  O  O323  1  0.68363139  0.04957914  0.15249061  1
  O  O324  1  0.88328301  0.47496201  0.14018308  1
  C  C325  1  0.52146420  0.38057122  0.23173396  1
  H  H326  1  0.62126938  0.00276483  0.24434815  1
  H  H327  1  0.66856174  0.18983753  0.00831435  1
  C  C328  1  0.74519105  0.31912023  0.21474008  1
  C  C329  1  0.58342248  0.47158663  0.03151771  1
  C  C330  1  0.55674986  0.42595932  0.00668465  1
  O  O331  1  0.59299186  0.26169274  0.08084476  1
  O  O332  1  0.73664103  0.13254532  0.22645395  1
  O  O333  1  0.83765385  0.11762271  0.23325117  1
  O  O334  1  0.77202260  0.00980622  0.12132247  1
  C  C335  1  0.57544889  0.34821464  0.21615395  1
  C  C336  1  0.52743138  0.20515372  0.16478163  1
  H  H337  1  0.80822726  0.40095168  0.15671636  1
  C  C338  1  0.97336025  0.03574948  0.21930675  1
  C  C339  1  0.64376574  0.48512054  0.01173291  1
  C  C340  1  0.83005297  0.38482836  0.20602373  1
  C  C341  1  0.91092936  0.45558369  0.18686638  1
  Cu  Cu342  1  0.65700488  0.30152258  0.12109764  1
  H  H343  1  0.56502335  0.12837894  0.19514295  1
  O  O344  1  0.72889698  0.33458131  0.15616146  1
  H  H345  1  0.54393248  0.44039348  0.15275478  1
  O  O346  1  0.60261037  0.35308093  0.15743787  1
  C  C347  1  0.53197234  0.16021754  0.20447386  1
  C  C348  1  0.72628410  0.01179559  0.15812325  1
  C  C349  1  0.51134078  0.42669165  0.19230066  1
  C  C350  1  0.80281620  0.34264032  0.24243850  1
  C  C351  1  0.88597392  0.40784451  0.22316766  1
  C  C352  1  0.99879754  0.12218292  0.16645757  1
  O  O353  1  0.96290360  0.47501042  0.21150249  1
  C  C354  1  0.71820609  0.10314389  0.36423678  1
  C  C355  1  0.82017256  0.07837013  0.44553079  1
  C  C356  1  0.82735260  0.09224638  0.37532835  1
  C  C357  1  0.77585343  0.10359151  0.33398719  1
  H  H358  1  0.87408578  0.09438747  0.35208679  1
  H  H359  1  0.67789556  0.11119857  0.33359692  1
  C  C360  1  0.88688219  0.35138048  0.32081220  1
  C  C361  1  0.71379429  0.08796144  0.43451666  1
  C  C362  1  0.83440871  0.32439273  0.30090567  1
  Cu  Cu363  1  0.57761181  0.03317409  0.37393893  1
  O  O364  1  0.54868898  0.08340011  0.30443916  1
  O  O365  1  0.92139289  0.05669323  0.45043817  1
  H  H366  1  0.60140252  0.29841246  0.46059446  1
  C  C367  1  0.87265056  0.05788561  0.48528595  1
  C  C368  1  0.65142923  0.08088745  0.46770609  1
  C  C369  1  0.72108834  0.32210565  0.44656207  1
  C  C370  1  0.76217372  0.07904718  0.48101871  1
  H  H371  1  0.95865492  0.41275098  0.30167348  1
  O  O372  1  0.60194722  0.08725471  0.42772505  1
  O  O373  1  0.89596004  0.29993157  0.42128650  1
  O  O374  1  0.71511745  0.28673073  0.25187685  1
  Cu  Cu375  1  0.66073441  0.30801004  0.31796243  1
  O  O376  1  0.96544041  0.36249055  0.40740518  1
  O  O377  1  0.77410864  0.34149329  0.44867927  1
  H  H378  1  0.81710692  0.28989950  0.33069400  1
  O  O379  1  0.59129625  0.31185441  0.25788055  1
  C  C380  1  0.91580854  0.39236623  0.28281839  1
  C  C381  1  0.91755373  0.33759183  0.38499750  1
  O  O382  1  0.70108679  0.28992919  0.40074117  1
  Cu  Cu383  1  0.83370203  0.31020294  0.49586901  1
  O  O384  1  0.70768641  0.47168083  0.27904286  1
  C  C385  1  0.78362502  0.11850303  0.25971495  1
  H  H386  1  0.73433699  0.48871100  0.41162398  1
  C  C387  1  0.50748939  0.11709028  0.31727242  1
  H  H388  1  0.93623837  0.05309461  0.25095624  1
  C  C389  1  0.96069657  0.24642024  0.66612825  1
  H  H390  1  0.91828914  0.13116960  0.58295210  1
  C  C391  1  0.94176522  0.15930050  0.61728770  1
  Cu  Cu392  1  0.91283309  0.01406583  0.61848110  1
  H  H393  1  0.75649294  0.37010011  0.56808481  1
  O  O394  1  0.94818386  0.41197906  0.57184553  1
  C  C395  1  0.93087539  0.21256725  0.61929383  1
  O  O396  1  0.84662111  0.20741236  0.54092076  1
  C  C397  1  0.88024769  0.23645935  0.57266849  1
  Cu  Cu398  1  0.80210850  0.31437149  0.72964289  1
  H  H399  1  0.95201946  0.28661012  0.66789899  1
  O  O400  1  0.76125370  0.37289692  0.69765090  1
  C  C401  1  0.62013573  0.31535257  0.50980521  1
  O  O402  1  0.88036532  0.28749374  0.56440304  1
  C  C403  1  0.67146521  0.36105055  0.62291066  1
  C  C404  1  0.70177939  0.37847476  0.69234053  1
  C  C405  1  0.99049039  0.44966761  0.69936611  1
  C  C406  1  0.58370061  0.32439193  0.56832815  1
  C  C407  1  0.93860434  0.47188776  0.66808160  1
  O  O408  1  0.86592330  0.04290457  0.54832123  1
  C  C409  1  0.70788269  0.35747307  0.56371382  1
  C  C410  1  0.91984981  0.44572674  0.60251413  1
  H  H411  1  0.75559915  0.06731337  0.53599730  1
  O  O412  1  0.66996498  0.39305196  0.73788366  1
  C  C413  1  0.60980192  0.34662759  0.62804583  1
  H  H414  1  0.58307499  0.34824934  0.67582807  1
  O  O415  1  0.86993354  0.46654114  0.57614949  1
  C  C416  1  0.67995076  0.33380975  0.50482539  1
  C  C417  1  0.51861594  0.30836376  0.57373975  1
  O  O418  1  0.98065385  0.05761775  0.61149607  1
  C  C419  1  0.98570247  0.14086899  0.66553544  1
  O  O420  1  0.64444244  0.06535218  0.52509362  1
  O  O421  1  0.81940272  0.24906614  0.74950183  1
  H  H422  1  0.81335493  0.44075506  0.74618365  1
  C  C423  1  0.61792434  0.21665462  0.88459724  1
  C  C424  1  0.96683839  0.06285163  0.89849584  1
  H  H425  1  0.94837171  0.16834460  0.89785140  1
  O  O426  1  0.59612253  0.20938172  0.82616178  1
  C  C427  1  0.81215577  0.19990429  0.93064163  1
  C  C428  1  0.72957096  0.21874734  0.84590956  1
  C  C429  1  0.79210120  0.21306736  0.86287795  1
  C  C430  1  0.68673693  0.21033610  0.89899911  1
  C  C431  1  0.83506651  0.46140289  0.79209239  1
  O  O432  1  0.66210533  0.31420622  0.91534878  1
  O  O433  1  0.58800537  0.23551852  0.93409320  1
  O  O434  1  0.92300623  0.35051021  0.85074814  1
  O  O435  1  0.74155642  0.36801695  0.90116379  1
  H  H436  1  0.71664492  0.23557223  0.79646089  1
  H  H437  1  0.86194756  0.19385719  0.94179664  1
  Cu  Cu438  1  0.94824240  0.27848280  0.85012026  1
  H  H439  1  0.93509622  0.43384333  0.91872765  1
  O  O440  1  0.92045353  0.06886288  0.86580430  1
  O  O441  1  0.94983988  0.26410159  0.94167028  1
  H  H442  1  0.56686401  0.35699618  0.93754953  1
  C  C443  1  0.87590710  0.43210393  0.83252711  1
  C  C444  1  0.90136852  0.45645546  0.89195434  1
  C  C445  1  0.89060109  0.37829598  0.80934001  1
  C  C446  1  0.83467770  0.22943393  0.80722346  1
  O  O447  1  0.89051041  0.22414766  0.82479241  1
  C  C448  1  0.68898085  0.36037277  0.91959692  1
  C  C449  1  0.70296989  0.19814170  0.96726332  1
  C  C450  1  0.76687763  0.19410390  0.98114755  1
  H  H451  1  0.72915174  0.45935773  0.95638009  1
  Cu  Cu452  1  0.51677500  0.22587088  0.79662436  1
  C  C453  1  0.65116999  0.40492736  0.95519078  1
  C  C454  1  0.58876683  0.39098512  0.96421682  1
  O  O455  1  0.50649357  0.35701610  0.81921960  1
  C  C456  1  0.68110206  0.45163150  0.97047129  1
  O  O457  1  0.87142842  0.36322963  0.75180724  1
  O  O458  1  0.98867887  0.01286337  0.91265316  1
  C  C459  1  0.98820764  0.15900072  0.92904677  1
  Cu  Cu460  1  0.62885755  0.28533688  0.99468666  1
  O  O461  1  0.95251110  0.65620937  0.14413989  1
  C  C462  1  0.55660397  0.72427035  0.11205350  1
  O  O463  1  0.64201109  0.55752972  0.09000852  1
  C  C464  1  0.53781601  0.69561288  0.05343903  1
  C  C465  1  0.61451338  0.75627820  0.11083091  1
  C  C466  1  0.82686729  0.88293797  0.01969057  1
  O  O467  1  0.63452706  0.77208435  0.16884537  1
  C  C468  1  0.98419895  0.98075790  0.22715164  1
  O  O469  1  0.63842678  0.76862497  0.05428254  1
  O  O470  1  0.72470538  0.54731843  0.02706708  1
  C  C471  1  0.67332343  0.53296378  0.04350162  1
  O  O472  1  0.74392001  0.68594967  0.19327695  1
  Cu  Cu473  1  0.92021698  0.62815212  0.06309207  1
  H  H474  1  0.82139435  0.92790455  0.01999206  1
  H  H475  1  0.83525345  0.73150477  0.22504609  1
  C  C476  1  0.88864839  0.80361846  0.04432093  1
  H  H477  1  0.78899594  0.92268319  0.17574091  1
  H  H478  1  0.93006604  0.78466297  0.06794556  1
  C  C479  1  0.70940433  0.96765073  0.20669491  1
  Cu  Cu480  1  0.69635027  0.74060284  0.21599820  1
  Cu  Cu481  1  0.98570225  0.54323169  0.22782020  1
  Cu  Cu482  1  0.67898950  0.58297555  0.17194659  1
  H  H483  1  0.54060221  0.74534258  0.21862098  1
  C  C484  1  0.75968595  0.65205503  0.23869658  1
  C  C485  1  0.84036311  0.77513674  0.01546663  1
  O  O486  1  0.81794180  0.83294007  0.20657276  1
  C  C487  1  0.74833189  0.92405245  0.20870543  1
  H  H488  1  0.56592684  0.69240378  0.00602824  1
  C  C489  1  0.65434028  0.97040278  0.24447764  1
  O  O490  1  0.97680429  0.87565040  0.09354898  1
  C  C491  1  0.52379409  0.72110788  0.17447601  1
  C  C492  1  0.92991074  0.89512505  0.07193829  1
  C  C493  1  0.88031938  0.85930455  0.04283094  1
  Cu  Cu494  1  0.60571579  0.82806408  0.00562871  1
  O  O495  1  0.64957129  0.53012408  0.22867614  1
  O  O496  1  0.92430995  0.94558237  0.06458562  1
  O  O497  1  0.52556255  0.82512980  0.04554568  1
  C  C498  1  0.72773651  0.87905662  0.24585371  1
  Cu  Cu499  1  0.88984470  0.86783896  0.24111404  1
  C  C500  1  0.76476183  0.83148101  0.23854061  1
  O  O501  1  0.72514060  0.61215920  0.24826864  1
  H  H502  1  0.55625240  0.50331088  0.05717429  1
  O  O503  1  0.92837514  0.79750371  0.24502579  1
  C  C504  1  0.85356840  0.71551636  0.00445915  1
  O  O505  1  0.90825500  0.69176917  0.01225531  1
  C  C506  1  0.66362437  0.53400563  0.35397012  1
  C  C507  1  0.60114279  0.59464785  0.41995499  1
  C  C508  1  0.61760936  0.57230819  0.35455038  1
  H  H509  1  0.79696831  0.59409315  0.35559523  1
  C  C510  1  0.87817223  0.64234496  0.38258110  1
  C  C511  1  0.69623721  0.51912224  0.41023522  1
  C  C512  1  0.82688239  0.62887234  0.34351068  1
  C  C513  1  0.91506055  0.68715964  0.36767953  1
  H  H514  1  0.94996508  0.70166774  0.40528914  1
  C  C515  1  0.90212232  0.71687967  0.30905678  1
  H  H516  1  0.59426404  0.58447925  0.30765391  1
  C  C517  1  0.93608014  0.76532504  0.29611967  1
  C  C518  1  0.81354733  0.66109727  0.28503918  1
  C  C519  1  0.84843342  0.70667895  0.26949877  1
  C  C520  1  0.54804941  0.63020095  0.42626524  1
  C  C521  1  0.67399892  0.50919196  0.28334977  1
  C  C522  1  0.68423550  0.54972006  0.47112896  1
  H  H523  1  0.66333382  0.84704501  0.32455388  1
  C  C524  1  0.67618187  0.88023217  0.29098059  1
  O  O525  1  0.54888295  0.97106945  0.32782445  1
  O  O526  1  0.93044407  0.97544213  0.33083297  1
  O  O527  1  0.54681173  0.81780088  0.45617688  1
  O  O528  1  0.97426560  0.77770251  0.34304251  1
  C  C529  1  0.88271758  0.61025827  0.44618676  1
  C  C530  1  0.63685273  0.58623161  0.47994279  1
  C  C531  1  0.64136422  0.92579892  0.28736455  1
  C  C532  1  0.58230700  0.92935427  0.32525506  1
  Cu  Cu533  1  0.97121540  0.99469275  0.41068531  1
  O  O534  1  0.57208725  0.88983214  0.36434797  1
  O  O535  1  0.96020709  0.89912355  0.28666511  1
  C  C536  1  0.99350478  0.89673542  0.48201831  1
  O  O537  1  0.97933377  0.86717362  0.43417958  1
  O  O538  1  0.84608782  0.57036097  0.45309148  1
  O  O539  1  0.50783189  0.63460989  0.37811795  1
  O  O540  1  0.98742187  0.94788328  0.47833171  1
  C  C541  1  0.95505663  0.94952244  0.28177941  1
  O  O542  1  0.74734071  0.79003660  0.26657253  1
  Cu  Cu543  1  0.51615413  0.83144474  0.37334047  1
  O  O544  1  0.92577146  0.61954727  0.48803222  1
  O  O545  1  0.53738239  0.65032026  0.48487873  1
  C  C546  1  0.90941260  0.51730361  0.69422694  1
  C  C547  1  0.86328092  0.84442684  0.62830456  1
  H  H548  1  0.87178000  0.53576120  0.66571082  1
  Cu  Cu549  1  0.68267110  0.54258983  0.66876515  1
  O  O550  1  0.72142260  0.56773308  0.58522673  1
  C  C551  1  0.87862600  0.87339398  0.68628026  1
  O  O552  1  0.60858381  0.55211354  0.63040621  1
  Cu  Cu553  1  0.93960979  0.68408632  0.54089845  1
  C  C554  1  0.72814963  0.54153267  0.52863107  1
  O  O555  1  0.76929317  0.50577172  0.52373795  1
  Cu  Cu556  1  0.85816661  0.51721883  0.51728927  1
  O  O557  1  0.75045592  0.52624841  0.71861374  1
  O  O558  1  0.82776631  0.77921601  0.51648446  1
  H  H559  1  0.62745467  0.60340749  0.53038645  1
  O  O560  1  0.86205274  0.70641176  0.56909677  1
  C  C561  1  0.87223151  0.93265928  0.69094691  1
  C  C562  1  0.56980976  0.58968909  0.64831597  1
  H  H563  1  0.87930422  0.71444724  0.68930473  1
  O  O564  1  0.88561139  0.94967500  0.74697575  1
  C  C565  1  0.86387478  0.78866803  0.63113899  1
  C  C566  1  0.52118752  0.80241310  0.51251971  1
  H  H567  1  0.84873616  0.86482880  0.57937286  1
  O  O568  1  0.58425297  0.63150345  0.67344458  1
  C  C569  1  0.84618439  0.75697216  0.56632128  1
  C  C570  1  0.88272917  0.75918093  0.68811487  1
  O  O571  1  0.85769894  0.96023855  0.63610040  1
  O  O572  1  0.52000653  0.75447735  0.53341245  1
  H  H573  1  0.51487727  0.50477631  0.58460544  1
  C  C574  1  0.89318537  0.84525380  0.74563123  1
  O  O575  1  0.86931105  0.61026667  0.73946340  1
  C  C576  1  0.89985108  0.78914437  0.74512927  1
  C  C577  1  0.50204230  0.58174408  0.63874505  1
  H  H578  1  0.99088333  0.79290932  0.51720559  1
  C  C579  1  0.91136923  0.53471425  0.97385931  1
  C  C580  1  0.83730173  0.53329117  0.87631361  1
  H  H581  1  0.81960162  0.57356084  0.89554921  1
  C  C582  1  0.78342826  0.79522383  0.99258733  1
  C  C583  1  0.91227530  0.59239484  0.77688762  1
  H  H584  1  0.62448764  0.68620733  0.82737819  1
  C  C585  1  0.88341109  0.50595315  0.91526143  1
  O  O586  1  0.75516240  0.58748991  0.80205037  1
  H  H587  1  0.50056659  0.82512358  0.85334224  1
  C  C588  1  0.61004719  0.72873208  0.82543361  1
  O  O589  1  0.50263310  0.61901603  0.96171772  1
  O  O590  1  0.92618740  0.61088748  0.83539756  1
  O  O591  1  0.62800771  0.92724085  0.79394440  1
  C  C592  1  0.81662236  0.51247083  0.81481137  1
  H  H593  1  0.90376452  0.86724990  0.79413091  1
  O  O594  1  0.50796865  0.66716897  0.83460784  1
  O  O595  1  0.90654240  0.71190314  0.81903285  1
  C  C596  1  0.65777002  0.76242379  0.80600449  1
  C  C597  1  0.91303572  0.76336622  0.81380616  1
  C  C598  1  0.55179616  0.75217185  0.83656655  1
  O  O599  1  0.53860535  0.91651738  0.84966745  1
  O  O600  1  0.93414866  0.78933239  0.86080202  1
  C  C601  1  0.98613536  0.51623568  0.78710412  1
  C  C602  1  0.65192151  0.81689335  0.79920531  1
  C  C603  1  0.54599179  0.80794273  0.83616415  1
  Cu  Cu604  1  0.95702626  0.97492547  0.98633695  1
  C  C605  1  0.59410496  0.84005499  0.81649996  1
  C  C606  1  0.58948794  0.89822267  0.81848258  1
  O  O607  1  0.67547582  0.84474434  0.95157949  1
  C  C608  1  0.76924269  0.54231816  0.77826200  1
  O  O609  1  0.73280738  0.68920733  0.79459083  1
  H  H610  1  0.69087432  0.84341626  0.78609005  1
  Cu  Cu611  1  0.96822938  0.67770472  0.85677498  1
  C  C612  1  0.72146178  0.87715805  0.96895924  1
  O  O613  1  0.71559091  0.92444836  0.97260387  1
  O  O614  1  0.80919674  0.69035937  0.99104869  1
  H  H615  1  0.74742329  0.76954278  0.97237360  1
  H  H616  1  0.99392867  0.53329028  0.83829067  1
  C  C617  1  0.72116154  0.74020497  0.78948677  1
  O  O618  1  0.95724087  0.51681514  0.99904566  1
  O  O619  1  0.76066493  0.77208770  0.77725086  1
  C  C620  1  0.77843965  0.85095182  0.99554792  1
  O  O621  1  0.89356451  0.58428357  0.99110446  1
  C  C622  1  0.93656643  0.54103905  0.75057272  1
  Cu  Cu623  1  0.79949721  0.65115110  0.76428568  1
