# generated using pymatgen
data_CuH44(C27N2)2
_symmetry_space_group_name_H-M   'P 1'
_cell_length_a   13.08151374
_cell_length_b   9.05080411
_cell_length_c   29.51609057
_cell_angle_alpha   90.00000000
_cell_angle_beta   90.00000000
_cell_angle_gamma   90.00000000
_symmetry_Int_Tables_number   1
_chemical_formula_structural   CuH44(C27N2)2
_chemical_formula_sum   'Cu4 H176 C216 N16'
_cell_volume   3494.65253575
_cell_formula_units_Z   4
loop_
 _symmetry_equiv_pos_site_id
 _symmetry_equiv_pos_as_xyz
  1  'x, y, z'
loop_
 _atom_site_type_symbol
 _atom_site_label
 _atom_site_symmetry_multiplicity
 _atom_site_fract_x
 _atom_site_fract_y
 _atom_site_fract_z
 _atom_site_occupancy
  H  H0  1  0.29590642  0.38110141  0.17854170  1
  C  C1  1  0.10957778  0.14602041  0.19057706  1
  C  C2  1  0.02309466  0.34966668  0.07566965  1
  H  H3  1  0.19409924  0.31281226  0.11525386  1
  H  H4  1  0.06998251  0.26812843  0.09575361  1
  H  H5  1  0.41811841  0.06307836  0.11458507  1
  C  C6  1  0.27625810  0.10907961  0.15207659  1
  C  C7  1  0.19615848  0.43244673  0.12367737  1
  C  C8  1  0.08576208  0.48756886  0.06179871  1
  H  H9  1  0.21874214  0.35384637  0.04824887  1
  C  C10  1  0.33309243  0.05588945  0.11486159  1
  C  C11  1  0.44409091  0.03367353  0.02995623  1
  C  C12  1  0.11134208  0.03592132  0.11076915  1
  H  H13  1  0.42429113  0.15065016  0.01952025  1
  H  H14  1  0.43277772  0.34000203  0.14114169  1
  C  C15  1  0.17020532  0.43976283  0.02955752  1
  C  C16  1  0.16640622  0.09685683  0.14841280  1
  H  H17  1  0.44847523  0.06231531  0.21249739  1
  C  C18  1  0.26235004  0.47051041  0.15796047  1
  C  C19  1  0.46276561  0.38044177  0.11088048  1
  C  C20  1  0.15046748  0.15970269  0.23401816  1
  H  H21  1  0.48877692  0.06049541  0.06155330  1
  C  C22  1  0.01135058  0.21229642  0.18808900  1
  C  C23  1  0.40180150  0.10727454  0.24093521  1
  H  H24  1  0.31041091  0.15680238  0.18299331  1
  N  N25  1  0.39069727  0.24761639  0.23410243  1
  H  H26  1  0.42268014  0.41856356  0.20217308  1
  H  H27  1  0.11196780  0.13329003  0.01617457  1
  H  H28  1  0.23202751  0.13471230  0.23735956  1
  C  C29  1  0.27795905  0.00130611  0.07716615  1
  H  H30  1  0.02863340  0.01478162  0.11414685  1
  H  H31  1  0.32353127  0.38466440  0.00465828  1
  C  C32  1  0.20533948  0.38404234  0.39861425  1
  C  C33  1  0.46703032  0.37656247  0.45740184  1
  H  H34  1  0.15527916  0.32154404  0.42148783  1
  C  C35  1  0.30396223  0.24827189  0.30534710  1
  H  H36  1  0.25182817  0.29586001  0.48059141  1
  C  C37  1  0.09169199  0.20963403  0.27094858  1
  H  H38  1  0.36700721  0.13021253  0.38544217  1
  C  C39  1  0.30038929  0.21235082  0.46286534  1
  H  H40  1  0.24043306  0.15148443  0.44292426  1
  C  C41  1  0.43170644  0.17230485  0.40401919  1
  C  C42  1  0.24849003  0.02207982  0.34816961  1
  C  C43  1  0.31414964  0.39155708  0.40459040  1
  H  H44  1  0.12889222  0.23153957  0.30402450  1
  H  H45  1  0.27668087  0.32032903  0.33368658  1
  C  C46  1  0.10499436  0.00365566  0.40078712  1
  C  C47  1  0.37858405  0.29174217  0.43386274  1
  C  C48  1  0.15658076  0.08613659  0.36786741  1
  C  C49  1  0.30524419  0.08965547  0.30862949  1
  H  H50  1  0.12500393  0.19312439  0.35653931  1
  H  H51  1  0.03389035  0.04203951  0.41636496  1
  C  C52  1  0.33827116  0.31783929  0.26603057  1
  H  H53  1  0.42849317  0.45504892  0.48091619  1
  H  H54  1  0.48538898  0.23440150  0.38143249  1
  H  H55  1  0.32669568  0.44106622  0.26174607  1
  C  C56  1  0.36562959  0.01978615  0.27614678  1
  C  C57  1  0.15887337  0.45673568  0.36305244  1
  C  C58  1  0.49166305  0.05581901  0.43289555  1
  H  H59  1  0.12836142  0.42985353  0.48770389  1
  H  H60  1  0.45306655  0.49283893  0.38285283  1
  C  C61  1  0.37202624  0.48945880  0.37669852  1
  H  H62  1  0.07600924  0.44533341  0.35697466  1
  C  C63  1  0.36741048  0.10833011  0.49622008  1
  H  H64  1  0.14962745  0.44760303  0.25074826  1
  H  H65  1  0.25485162  0.31241591  0.54073184  1
  H  H66  1  0.18923982  0.30095600  0.61460754  1
  H  H67  1  0.01943335  0.38963478  0.68769949  1
  C  C68  1  0.13465011  0.19625792  0.69345743  1
  C  C69  1  0.09404798  0.19260793  0.73748305  1
  C  C70  1  0.15156450  0.06351556  0.66835844  1
  H  H71  1  0.15493855  0.30523411  0.68146521  1
  C  C72  1  0.21534630  0.19478090  0.60038156  1
  C  C73  1  0.25951001  0.20037885  0.55760140  1
  C  C74  1  0.30416027  0.06928245  0.53859026  1
  C  C75  1  0.46379216  0.18202560  0.51906047  1
  C  C76  1  0.20623848  0.06031935  0.62399825  1
  H  H77  1  0.44309011  0.25224282  0.54814201  1
  H  H78  1  0.04520925  0.42712628  0.53293142  1
  C  C79  1  0.07369078  0.49877577  0.50735547  1
  H  H80  1  0.30181754  0.04139938  0.89643754  1
  H  H81  1  0.27303423  0.03656520  0.97607959  1
  C  C82  1  0.12474719  0.35745133  0.98704984  1
  H  H83  1  0.47193248  0.38030205  0.95404175  1
  C  C84  1  0.27336472  0.28528676  0.87555031  1
  C  C85  1  0.04614440  0.46891796  0.96328082  1
  H  H86  1  0.26174367  0.27190200  0.83973959  1
  H  H87  1  0.08148179  0.28642675  0.75954085  1
  C  C88  1  0.46618435  0.34131950  0.86490758  1
  C  C89  1  0.20840997  0.31713287  0.95171106  1
  C  C90  1  0.31107367  0.33941662  0.97027919  1
  C  C91  1  0.18770959  0.29033890  0.90550299  1
  C  C92  1  0.39464571  0.34448761  0.94066702  1
  C  C93  1  0.37225670  0.31756920  0.89343955  1
  C  C94  1  0.46141386  0.42056415  0.82338521  1
  H  H95  1  0.11204446  0.27272727  0.89233921  1
  N  N96  1  0.06859045  0.06285380  0.75825068  1
  H  H97  1  0.44098523  0.03759604  0.93539958  1
  H  H98  1  0.03019447  0.16193984  0.96782069  1
  H  H99  1  0.01679636  0.41482293  0.93156424  1
  H  H100  1  0.02555000  0.15521351  0.82725377  1
  H  H101  1  0.38664052  0.45596968  0.80906846  1
  H  H102  1  0.15719126  0.00490430  0.83793207  1
  C  C103  1  0.06102531  0.21829890  0.99888880  1
  C  C104  1  0.14156418  0.55009347  0.10055567  1
  C  C105  1  0.36538832  0.77573923  0.05862073  1
  C  C106  1  0.14888424  0.70261580  0.11485660  1
  N  N107  1  0.05264387  0.78259069  0.22875672  1
  H  H108  1  0.12931751  0.94159438  0.04272739  1
  C  C109  1  0.34514237  0.93615123  0.03875975  1
  C  C110  1  0.29064671  0.62444234  0.16667037  1
  H  H111  1  0.04824816  0.69951253  0.02673066  1
  C  C112  1  0.41668043  0.79712769  0.20580624  1
  C  C113  1  0.38354298  0.65100894  0.19399222  1
  H  H114  1  0.38877433  0.78278436  0.09626249  1
  C  C115  1  0.44915762  0.71070451  0.02746747  1
  H  H116  1  0.29173070  0.70897407  0.05680956  1
  H  H117  1  0.09907027  0.78545475  0.10129023  1
  H  H118  1  0.23820178  0.85059917  0.15208204  1
  C  C119  1  0.22782202  0.73640607  0.14364448  1
  C  C120  1  0.16737440  0.99485118  0.07265489  1
  H  H121  1  0.35597302  0.56329978  0.10145225  1
  C  C122  1  0.00685878  0.59172087  0.03649885  1
  H  H123  1  0.37636768  0.89331283  0.19191392  1
  H  H124  1  0.08004029  0.62315490  0.18422238  1
  C  C125  1  0.09005631  0.65139286  0.22075760  1
  C  C126  1  0.48070805  0.57008668  0.05137528  1
  H  H127  1  0.21953213  0.53284994  0.02084142  1
  C  C128  1  0.44507991  0.53065184  0.21082851  1
  C  C129  1  0.42258403  0.50408717  0.08810378  1
  C  C130  1  0.21790105  0.54322938  0.33175658  1
  C  C131  1  0.06053530  0.84189284  0.27026610  1
  C  C132  1  0.32512401  0.55987217  0.33959536  1
  H  H133  1  0.37975259  0.89951076  0.27740959  1
  H  H134  1  0.35187832  0.82829714  0.34964471  1
  H  H135  1  0.24875390  0.68407472  0.40472931  1
  C  C136  1  0.18174120  0.72347140  0.48897713  1
  C  C137  1  0.13991011  0.86679848  0.41784347  1
  H  H138  1  0.08870503  0.59115425  0.41776914  1
  H  H139  1  0.47684919  0.50147369  0.30370933  1
  H  H140  1  0.36846173  0.63157049  0.31724669  1
  C  C141  1  0.14848568  0.62658797  0.29883256  1
  C  C142  1  0.22741293  0.79923207  0.39658433  1
  C  C143  1  0.03421277  0.66481991  0.43510193  1
  C  C144  1  0.28278254  0.87878578  0.36374331  1
  C  C145  1  0.09521840  0.78701873  0.45788858  1
  H  H146  1  0.24135365  0.65933680  0.46877340  1
  C  C147  1  0.10888106  0.77348074  0.30513009  1
  C  C148  1  0.01968441  0.87990456  0.48408403  1
  H  H149  1  0.12327892  0.83461780  0.33577939  1
  C  C150  1  0.13372455  0.56534475  0.25582872  1
  H  H151  1  0.02960123  0.95566943  0.26926347  1
  H  H152  1  0.34653702  0.93594682  0.44389543  1
  H  H153  1  0.46786991  0.96568272  0.33799043  1
  C  C154  1  0.41066809  0.98481656  0.46560189  1
  H  H155  1  0.45261496  0.88768170  0.48547424  1
  C  C156  1  0.19430210  0.59918824  0.60628236  1
  C  C157  1  0.39908848  0.55320910  0.58050606  1
  H  H158  1  0.11147280  0.62756632  0.61334715  1
  H  H159  1  0.01361126  0.64305904  0.58148649  1
  C  C160  1  0.13415111  0.62554592  0.52645833  1
  C  C161  1  0.11468763  0.93155868  0.69042513  1
  H  H162  1  0.09890436  0.79922058  0.57652951  1
  C  C163  1  0.29166329  0.93430267  0.56294948  1
  C  C164  1  0.32283636  0.56811258  0.54707026  1
  C  C165  1  0.36936702  0.57974151  0.62712942  1
  H  H166  1  0.47988420  0.53059489  0.56971556  1
  C  C167  1  0.05292636  0.71676829  0.55537125  1
  C  C168  1  0.21773554  0.59358480  0.55872036  1
  C  C169  1  0.24222680  0.92759162  0.60477744  1
  H  H170  1  0.12285895  0.82290004  0.67405265  1
  H  H171  1  0.23195590  0.82678232  0.62316481  1
  C  C172  1  0.26369817  0.59342405  0.64185647  1
  H  H173  1  0.32404443  0.82627551  0.55353774  1
  H  H174  1  0.37924955  0.70798178  0.71261551  1
  H  H175  1  0.23645805  0.61897721  0.67477411  1
  C  C176  1  0.08455650  0.93941915  0.73527155  1
  C  C177  1  0.45434028  0.67954623  0.70078531  1
  C  C178  1  0.45537666  0.60093286  0.65889660  1
  H  H179  1  0.22409018  0.82044302  0.50656831  1
  H  H180  1  0.04825214  0.98385187  0.50028166  1
  H  H181  1  0.06076644  0.99126511  0.57599919  1
  H  H182  1  0.33950585  0.55852541  0.51027267  1
  C  C183  1  0.29947258  0.80834606  0.91795703  1
  H  H184  1  0.21779333  0.86190974  0.99594177  1
  H  H185  1  0.41533218  0.73287060  0.83218868  1
  H  H186  1  0.42499946  0.60202104  0.95794984  1
  C  C187  1  0.05163263  0.62964735  0.79164573  1
  C  C188  1  0.26860221  0.92840389  0.88856227  1
  C  C189  1  0.26438143  0.66060225  0.90808099  1
  C  C190  1  0.18988616  0.64140447  0.87457127  1
  H  H191  1  0.28922449  0.56868786  0.92794030  1
  C  C192  1  0.46083387  0.92542681  0.95167132  1
  C  C193  1  0.15477173  0.76748695  0.85040405  1
  H  H194  1  0.09106517  0.56545758  0.94975717  1
  C  C195  1  0.38549558  0.68468527  0.98136993  1
  C  C196  1  0.05740717  0.74704885  0.82398878  1
  H  H197  1  0.06019007  0.84750470  0.75671267  1
  C  C198  1  0.19485516  0.91113123  0.85604998  1
  C  C199  1  0.36050429  0.83282212  0.95965520  1
  H  H200  1  0.11880703  0.55976392  0.78572078  1
  C  C201  1  0.49063315  0.77414205  0.84135691  1
  H  H202  1  0.31775100  0.62405375  0.99134778  1
  H  H203  1  0.16123991  0.53230670  0.86634203  1
  C  C204  1  0.29251435  0.92660005  0.99086731  1
  N  N205  1  0.49494734  0.91337489  0.82601383  1
  C  C206  1  0.97685892  0.26471536  0.03408247  1
  C  C207  1  0.92615852  0.11786373  0.05120935  1
  H  H208  1  0.83703320  0.40333570  0.03516549  1
  C  C209  1  0.90050735  0.37455526  0.01148602  1
  H  H210  1  0.64943367  0.04037255  0.06050624  1
  C  C211  1  0.89008902  0.12790616  0.09679053  1
  H  H212  1  0.87685271  0.29607819  0.23003250  1
  C  C213  1  0.55100851  0.30439437  0.09331038  1
  H  H214  1  0.66864177  0.29384016  0.04104487  1
  C  C215  1  0.64309175  0.04540346  0.18847477  1
  C  C216  1  0.60780344  0.36259422  0.05585319  1
  C  C217  1  0.59849050  0.16634148  0.16749945  1
  H  H218  1  0.72637561  0.36579075  0.12871127  1
  C  C219  1  0.59678272  0.17312734  0.11927770  1
  C  C220  1  0.77744086  0.46646235  0.13488595  1
  H  H221  1  0.88383977  0.23576028  0.11665986  1
  C  C222  1  0.95655409  0.26108590  0.22659642  1
  H  H223  1  0.97278144  0.22080743  0.15501799  1
  H  H224  1  0.96148521  0.38859115  0.09760459  1
  H  H225  1  0.55916451  0.25378156  0.18618899  1
  H  H226  1  0.65399816  0.03588243  0.22680142  1
  C  C227  1  0.56635547  0.48817449  0.03442639  1
  C  C228  1  0.64102745  0.04823233  0.09683733  1
  N  N229  1  0.83108830  0.44493955  0.17276728  1
  H  H230  1  0.59900233  0.49315150  0.24296084  1
  C  C231  1  0.58144459  0.15254595  0.45674433  1
  C  C232  1  0.53523116  0.26733248  0.48600345  1
  H  H233  1  0.52229178  0.24449702  0.27370470  1
  H  H234  1  0.63624621  0.07083032  0.47501996  1
  C  C235  1  0.53949203  0.43995057  0.31863583  1
  N  N236  1  0.61322682  0.19484758  0.32233806  1
  C  C237  1  0.90358152  0.30541513  0.47819384  1
  C  C238  1  0.91085608  0.29655196  0.38338160  1
  H  H239  1  0.62881691  0.20849721  0.43095412  1
  H  H240  1  0.86001159  0.07569338  0.47754948  1
  C  C241  1  0.88698285  0.16229406  0.40699955  1
  C  C242  1  0.66854520  0.24265426  0.35592617  1
  C  C243  1  0.86852541  0.03706118  0.37501390  1
  C  C244  1  0.89564256  0.05015832  0.32890331  1
  C  C245  1  0.55692907  0.29903900  0.30215724  1
  C  C246  1  0.67125776  0.38421911  0.37428745  1
  H  H247  1  0.72847422  0.41557078  0.40011997  1
  C  C248  1  0.88086981  0.17033160  0.45632511  1
  H  H249  1  0.71928712  0.14167699  0.36353396  1
  H  H250  1  0.89756809  0.29894021  0.34854927  1
  H  H251  1  0.94571580  0.14383947  0.31808802  1
  H  H252  1  0.51503388  0.43575738  0.43389535  1
  C  C253  1  0.92662398  0.43151349  0.40377653  1
  C  C254  1  0.93206043  0.43333425  0.45318663  1
  C  C255  1  0.60119934  0.49234368  0.35643043  1
  N  N256  1  0.99384603  0.25558245  0.26835229  1
  H  H257  1  0.89693838  0.32635958  0.51398606  1
  C  C258  1  0.79696591  0.10194945  0.67214340  1
  H  H259  1  0.64742249  0.19335033  0.65144795  1
  H  H260  1  0.97987461  0.09594420  0.64585363  1
  H  H261  1  0.62585405  0.36086154  0.72105525  1
  H  H262  1  0.88081761  0.30011084  0.63333508  1
  C  C263  1  0.68420727  0.25421653  0.53537342  1
  C  C264  1  0.76099295  0.30818727  0.56428390  1
  C  C265  1  0.61198481  0.34715477  0.51349600  1
  H  H266  1  0.82341709  0.23396864  0.57743084  1
  N  N267  1  0.76713953  0.31314948  0.74259879  1
  H  H268  1  0.92973733  0.03585732  0.71448523  1
  C  C269  1  0.86528671  0.10889701  0.70957985  1
  C  C270  1  0.93228260  0.03671981  0.62119300  1
  H  H271  1  0.68566371  0.13261269  0.53020348  1
  C  C272  1  0.69347989  0.28559854  0.71429187  1
  C  C273  1  0.70787172  0.19122239  0.67767738  1
  C  C274  1  0.82200735  0.03115094  0.62721954  1
  C  C275  1  0.84774922  0.22752526  0.74035752  1
  C  C276  1  0.89222016  0.41456098  0.63520765  1
  C  C277  1  0.75568293  0.46299293  0.57366658  1
  H  H278  1  0.56542004  0.48370396  0.61466410  1
  C  C279  1  0.96914520  0.45875380  0.66514796  1
  H  H280  1  0.50834729  0.09012662  0.53541133  1
  H  H281  1  0.53512443  0.27723033  0.98811234  1
  C  C282  1  0.90669614  0.45248093  0.85870942  1
  H  H283  1  0.89866970  0.25665507  0.76975865  1
  C  C284  1  0.65228676  0.32462926  0.84919846  1
  C  C285  1  0.56349326  0.28137989  0.87434597  1
  H  H286  1  0.57003909  0.11407173  0.81875035  1
  C  C287  1  0.60505711  0.05554768  0.98499850  1
  C  C288  1  0.90439426  0.15784886  0.88260631  1
  N  N289  1  0.64269329  0.40893073  0.81377870  1
  H  H290  1  0.67397051  0.40997798  0.94981905  1
  C  C291  1  0.54967897  0.45621017  0.80053263  1
  C  C292  1  0.59953020  0.21037884  0.97784023  1
  C  C293  1  0.84927202  0.40774785  0.89467033  1
  C  C294  1  0.67560426  0.28615349  0.95448494  1
  C  C295  1  0.84490348  0.25721372  0.90978502  1
  C  C296  1  0.76094225  0.19926800  0.93880684  1
  H  H297  1  0.85942046  0.31549470  0.98195135  1
  H  H298  1  0.79791891  0.48574523  0.91091539  1
  H  H299  1  0.57236169  0.18492190  0.89909726  1
  H  H300  1  0.73512834  0.29344255  0.85026966  1
  C  C301  1  0.96405343  0.21495355  0.84700828  1
  H  H302  1  0.90791959  0.04183169  0.89066646  1
  C  C303  1  0.77443941  0.04797947  0.95303262  1
  N  N304  1  0.96912986  0.35696990  0.83611117  1
  H  H305  1  0.73016997  0.01855134  0.86359626  1
  Cu  Cu306  1  0.76275333  0.46845600  0.78425950  1
  N  N307  1  0.57731311  0.70058194  0.23773231  1
  H  H308  1  0.71092990  0.82326463  0.10878899  1
  C  C309  1  0.53952954  0.56534510  0.22885837  1
  C  C310  1  0.54775708  0.81052578  0.01645634  1
  H  H311  1  0.83457108  0.99429554  0.15354659  1
  Cu  Cu312  1  0.72857122  0.76602116  0.19378612  1
  C  C313  1  0.88942066  0.85343157  0.04765869  1
  H  H314  1  0.60242401  0.81202550  0.04556969  1
  C  C315  1  0.84868206  0.71235804  0.12342382  1
  H  H316  1  0.96051305  0.78181829  0.17371373  1
  N  N317  1  0.67716111  0.92670918  0.16616204  1
  C  C318  1  0.87055570  0.85318602  0.09514553  1
  H  H319  1  0.88479188  0.75484352  0.02624119  1
  H  H320  1  0.93838500  0.62056775  0.05753855  1
  C  C321  1  0.78396997  0.59571894  0.11018021  1
  H  H322  1  0.73021092  0.62653729  0.08192061  1
  C  C323  1  0.92668670  0.98241997  0.02804336  1
  C  C324  1  0.67215481  0.92664975  0.12183472  1
  C  C325  1  0.91174070  0.69194033  0.16184793  1
  C  C326  1  0.88955395  0.55764756  0.18537101  1
  C  C327  1  0.86070877  0.98999672  0.11689486  1
  H  H328  1  0.60975934  0.54110102  0.00642657  1
  H  H329  1  0.75008692  0.51619905  0.00595013  1
  H  H330  1  0.93454614  0.52790733  0.21713662  1
  H  H331  1  0.54269804  0.91955737  0.23401347  1
  C  C332  1  0.51018023  0.81107838  0.22688373  1
  C  C333  1  0.57901031  0.81272477  0.43215085  1
  C  C334  1  0.52668649  0.92239592  0.40627135  1
  H  H335  1  0.74428755  0.70686346  0.35736553  1
  H  H336  1  0.64492518  0.59377164  0.43701236  1
  C  C337  1  0.98603444  0.56546928  0.47492914  1
  H  H338  1  0.52913533  0.73100125  0.30187983  1
  C  C339  1  0.54099752  0.75778528  0.33819322  1
  Cu  Cu340  1  0.70130827  0.76179013  0.27152853  1
  N  N341  1  0.79202071  0.83948950  0.31109632  1
  H  H342  1  0.83256940  0.67690976  0.48405493  1
  H  H343  1  0.59871088  0.84295308  0.46693212  1
  C  C344  1  0.77717102  0.81654331  0.35511069  1
  H  H345  1  0.93651503  0.52706011  0.38160791  1
  C  C346  1  0.58674403  0.64795608  0.36861106  1
  C  C347  1  0.61152576  0.68010274  0.41479375  1
  H  H348  1  0.79972575  0.88942942  0.42458071  1
  C  C349  1  0.50706063  0.88542542  0.35886346  1
  C  C350  1  0.84883795  0.95469810  0.29771992  1
  H  H351  1  0.85328048  0.96629097  0.26144277  1
  C  C352  1  0.80985899  0.91072363  0.38789451  1
  H  H353  1  0.95921360  0.92218659  0.46081318  1
  H  H354  1  0.97632529  0.70765076  0.41103978  1
  H  H355  1  0.57278671  0.57381654  0.49945182  1
  N  N356  1  0.63037954  0.65645237  0.71123541  1
  H  H357  1  0.88570558  0.59547578  0.53538616  1
  C  C358  1  0.54311947  0.71455085  0.72369527  1
  C  C359  1  0.94025377  0.69330906  0.65150833  1
  C  C360  1  0.96655007  0.78790066  0.52504828  1
  H  H361  1  0.67809543  0.68063522  0.56157978  1
  C  C362  1  0.86019277  0.65815731  0.62254002  1
  C  C363  1  0.91063056  0.89774623  0.55384527  1
  C  C364  1  0.80142279  0.89063740  0.55535836  1
  C  C365  1  0.62346400  0.50206074  0.51796987  1
  Cu  Cu366  1  0.75980365  0.68481083  0.73791809  1
  H  H367  1  0.80867541  0.74838993  0.61295665  1
  C  C368  1  0.83425556  0.51128113  0.60767437  1
  H  H369  1  0.75225720  0.81927737  0.53257818  1
  C  C370  1  0.63680318  0.57528973  0.67285113  1
  C  C371  1  0.68761256  0.56170385  0.55050093  1
  C  C372  1  0.55426136  0.54639639  0.64588260  1
  H  H373  1  0.95829046  0.81401161  0.66160046  1
  H  H374  1  0.71498646  0.53493934  0.66502152  1
  C  C375  1  0.97965289  0.97714410  0.58362360  1
  N  N376  1  0.99528148  0.59136992  0.67488525  1
  C  C377  1  0.75962386  0.96041319  0.59337889  1
  H  H378  1  0.67876784  0.94166856  0.59917551  1
  H  H379  1  0.95321525  0.52426606  0.73994356  1
  C  C380  1  0.90585484  0.65110571  0.50350037  1
  H  H381  1  0.62180142  0.60438821  0.94761796  1
  C  C382  1  0.65130886  0.80537363  0.87947649  1
  C  C383  1  0.70127332  0.63887862  0.94686590  1
  H  H384  1  0.94753892  0.98671100  0.99193046  1
  C  C385  1  0.91511466  0.69847591  0.93287088  1
  C  C386  1  0.96064192  0.61061133  0.76520098  1
  C  C387  1  0.73106632  0.73483613  0.90995445  1
  H  H388  1  0.55893667  0.60394894  0.88444487  1
  C  C389  1  0.88322392  0.80790972  0.79838149  1
  C  C390  1  0.66165498  0.94552864  0.85890954  1
  C  C391  1  0.83769877  0.76868417  0.90743633  1
  C  C392  1  0.56666668  0.71529117  0.87005280  1
  H  H393  1  0.81273370  0.87800464  0.79645490  1
  H  H394  1  0.85804628  0.84328707  0.87948513  1
  N  N395  1  0.88200819  0.69852059  0.76955007  1
  H  H396  1  0.55242560  0.51387459  0.76973102  1
  C  C397  1  0.88283483  0.60547643  0.96998769  1
  H  H398  1  0.91028903  0.56345155  0.84493110  1
  H  H399  1  0.59121254  0.74601483  0.98776101  1
  H  H400  1  0.84599849  0.98794028  0.94403081  1
  C  C401  1  0.57708797  0.99585717  0.83468805  1
  C  C402  1  0.69835428  0.97342541  0.97677616  1
  C  C403  1  0.77600686  0.58634494  0.97652764  1
  H  H404  1  0.70127131  0.85241309  0.98235113  1
  H  H405  1  0.51004734  0.87206358  0.92409575  1
  C  C406  1  0.97027816  0.83817023  0.82441462  1
  H  H407  1  0.97152614  0.94068281  0.84520564  1
  C  C408  1  0.51711453  0.95736572  0.99645412  1
  H  H409  1  0.99719118  0.71748712  0.92379915  1
  C  C410  1  0.96070368  0.51343328  0.99536900  1
  H  H411  1  0.54432745  0.78711083  0.75476523  1
