# generated using pymatgen
data_CuH12(C7N2)3
_symmetry_space_group_name_H-M   'P 1'
_cell_length_a   11.87199112
_cell_length_b   11.54721508
_cell_length_c   23.90545425
_cell_angle_alpha   90.00000000
_cell_angle_beta   90.00000000
_cell_angle_gamma   90.00000000
_symmetry_Int_Tables_number   1
_chemical_formula_structural   CuH12(C7N2)3
_chemical_formula_sum   'Cu8 H96 C168 N48'
_cell_volume   3277.16131047
_cell_formula_units_Z   8
loop_
 _symmetry_equiv_pos_site_id
 _symmetry_equiv_pos_as_xyz
  1  'x, y, z'
loop_
 _atom_site_type_symbol
 _atom_site_label
 _atom_site_symmetry_multiplicity
 _atom_site_fract_x
 _atom_site_fract_y
 _atom_site_fract_z
 _atom_site_occupancy
  C  C0  1  0.27735631  0.18592693  0.15600915  1
  N  N1  1  0.10708001  0.28109522  0.18832900  1
  H  H2  1  0.43333475  0.39909033  0.15485965  1
  N  N3  1  0.10537771  0.15334034  0.03867218  1
  C  C4  1  0.46359058  0.20898470  0.21147932  1
  N  N5  1  0.39781794  0.36730799  0.06936193  1
  C  C6  1  0.15771132  0.20776460  0.15416917  1
  C  C7  1  0.34211257  0.23425847  0.19991749  1
  H  H8  1  0.46277665  0.03852153  0.14168303  1
  H  H9  1  0.32672422  0.13768295  0.12644190  1
  C  C10  1  0.38238644  0.42111989  0.11769855  1
  C  C11  1  0.03576188  0.23105472  0.01946762  1
  C  C12  1  0.17491477  0.34123335  0.22117217  1
  C  C13  1  0.18779932  0.12123438  0.00412198  1
  C  C14  1  0.24202667  0.44255889  0.01661848  1
  H  H15  1  0.10217637  0.16065368  0.12715563  1
  C  C16  1  0.36308654  0.37285207  0.02404068  1
  C  C17  1  0.28641012  0.31782328  0.23510653  1
  H  H18  1  0.11820303  0.02364373  0.18371378  1
  H  H19  1  0.46477302  0.01418968  0.01656363  1
  H  H20  1  0.23408045  0.05759487  0.02939280  1
  H  H21  1  0.18788338  0.36698658  0.00851661  1
  H  H22  1  0.02093295  0.42146768  0.11171033  1
  C  C23  1  0.21036132  0.49525938  0.07598918  1
  C  C24  1  0.28206193  0.48448423  0.12314268  1
  H  H25  1  0.11925156  0.40051357  0.24482567  1
  C  C26  1  0.02616194  0.05258669  0.25750492  1
  H  H27  1  0.32744166  0.36904456  0.26867091  1
  C  C28  1  0.14200510  0.22064592  0.36786425  1
  H  H29  1  0.26204400  0.11565712  0.28424854  1
  H  H30  1  0.44379668  0.20315000  0.37376702  1
  C  C31  1  0.15576844  0.09984963  0.38152230  1
  N  N32  1  0.31177361  0.35979870  0.36223422  1
  C  C33  1  0.26711883  0.04001848  0.37168505  1
  C  C34  1  0.23846559  0.29690640  0.36278234  1
  C  C35  1  0.04084252  0.44908351  0.48101953  1
  N  N36  1  0.45648023  0.28415603  0.35750654  1
  C  C37  1  0.30617537  0.06153677  0.31507228  1
  H  H38  1  0.43291446  0.00794245  0.25321651  1
  C  C39  1  0.02305114  0.25575819  0.36370576  1
  C  C40  1  0.06719807  0.03185802  0.40232151  1
  H  H41  1  0.07189618  0.13905659  0.26281998  1
  C  C42  1  0.40197779  0.00411026  0.29724755  1
  C  C43  1  0.05446663  0.46062277  0.32672333  1
  H  H44  1  0.09439845  0.17480293  0.48091999  1
  N  N45  1  0.15170605  0.46160085  0.47389750  1
  C  C46  1  0.49598058  0.27783350  0.30736469  1
  H  H47  1  0.13263574  0.47100645  0.35125549  1
  H  H48  1  0.01457001  0.37442293  0.45469622  1
  H  H49  1  0.46851238  0.35122902  0.72891631  1
  N  N50  1  0.07907581  0.21954727  0.56704387  1
  H  H51  1  0.31055642  0.30164418  0.65293184  1
  C  C52  1  0.05162186  0.19052611  0.61928943  1
  H  H53  1  0.07327950  0.26302687  0.64921862  1
  N  N54  1  0.25327605  0.37032254  0.66222527  1
  C  C55  1  0.06762080  0.14368021  0.52389076  1
  C  C56  1  0.24146491  0.37707103  0.71048507  1
  H  H57  1  0.11342937  0.29692587  0.55307378  1
  C  C58  1  0.43104331  0.01729870  0.74453223  1
  C  C59  1  0.01710502  0.03911634  0.53803666  1
  C  C60  1  0.00610150  0.08626371  0.63764496  1
  C  C61  1  0.45538796  0.25590078  0.73427986  1
  H  H62  1  0.16263389  0.17900599  0.74204927  1
  H  H63  1  0.22884273  0.01641597  0.67293180  1
  C  C64  1  0.17419119  0.00474034  0.71133522  1
  C  C65  1  0.13550453  0.09039773  0.74775427  1
  N  N66  1  0.25149056  0.26634991  0.84919820  1
  C  C67  1  0.05891074  0.06339272  0.79161843  1
  C  C68  1  0.28756800  0.28945283  0.79869315  1
  C  C69  1  0.35737233  0.08975013  0.77440880  1
  C  C70  1  0.11253291  0.41798217  0.85467284  1
  H  H71  1  0.29173970  0.14929241  0.93522699  1
  C  C72  1  0.13742237  0.45220333  0.79769695  1
  C  C73  1  0.02388539  0.46353683  0.89021529  1
  H  H74  1  0.01275946  0.24624556  0.81790110  1
  C  C75  1  0.04239085  0.28194961  0.96559433  1
  H  H76  1  0.29309647  0.19261714  0.86451532  1
  C  C77  1  0.21247772  0.17547291  0.95274763  1
  C  C78  1  0.14212626  0.26822433  0.93346812  1
  C  C79  1  0.17138924  0.32050184  0.87973841  1
  H  H80  1  0.28971592  0.04751639  0.80128720  1
  H  H81  1  0.46577826  0.42538792  0.84499475  1
  C  C82  1  0.22503748  0.38633251  0.76807458  1
  C  C83  1  0.36868916  0.21123993  0.76873715  1
  H  H84  1  0.41223281  0.32098933  0.99149682  1
  C  C85  1  0.00998921  0.15216259  0.82829562  1
  C  C86  1  0.49021108  0.07100551  0.97951058  1
  C  C87  1  0.45958063  0.03769441  0.92850389  1
  N  N88  1  0.46076066  0.06524087  0.87705382  1
  H  H89  1  0.25580299  0.52507660  0.16282232  1
  C  C90  1  0.11299414  0.56302763  0.07327696  1
  H  H91  1  0.22615487  0.73137904  0.05117726  1
  C  C92  1  0.00654714  0.89550631  0.19887701  1
  C  C93  1  0.27602438  0.79672176  0.07631740  1
  N  N94  1  0.40920249  0.95952561  0.07326109  1
  H  H95  1  0.06930489  0.57011256  0.03412566  1
  N  N96  1  0.13434494  0.64221117  0.16794593  1
  H  H97  1  0.32884243  0.90258367  0.20626572  1
  C  C98  1  0.40735355  0.96646094  0.12766289  1
  C  C99  1  0.34569841  0.87498688  0.05075952  1
  C  C100  1  0.20509464  0.72743881  0.17743149  1
  C  C101  1  0.09215299  0.64883787  0.11597348  1
  C  C102  1  0.33407420  0.89486969  0.16073205  1
  C  C103  1  0.24290019  0.72640762  0.23626477  1
  C  C104  1  0.27482273  0.80081693  0.13608310  1
  H  H105  1  0.02691560  0.86307185  0.15670492  1
  N  N106  1  0.34857354  0.54717424  0.24648562  1
  H  H107  1  0.46524039  0.77911616  0.14275479  1
  C  C108  1  0.03292483  0.75090676  0.09269324  1
  H  H109  1  0.48488671  0.57153112  0.09444244  1
  N  N110  1  0.06056582  0.99427437  0.21287208  1
  H  H111  1  0.35432629  0.89346867  0.00531596  1
  C  C112  1  0.02368414  0.54750226  0.28964885  1
  H  H113  1  0.20134627  0.74342741  0.42330345  1
  C  C114  1  0.37695004  0.69395609  0.39202879  1
  H  H115  1  0.28910064  0.56317386  0.47907001  1
  C  C116  1  0.25960831  0.73621632  0.38723308  1
  C  C117  1  0.07605067  0.90797137  0.41602619  1
  H  H118  1  0.11185389  0.83031040  0.27208886  1
  C  C119  1  0.18059506  0.78385976  0.28299866  1
  C  C120  1  0.21758464  0.76070335  0.33542853  1
  N  N121  1  0.45114889  0.63110539  0.42151351  1
  N  N122  1  0.06880310  0.81705327  0.43210132  1
  C  C123  1  0.44091110  0.94400507  0.39467446  1
  H  H124  1  0.06397961  0.63050334  0.28357522  1
  C  C125  1  0.46899842  0.94152644  0.33690990  1
  H  H126  1  0.37279204  0.77147715  0.47247292  1
  C  C127  1  0.49353488  0.70243982  0.37926628  1
  C  C128  1  0.20127956  0.55609752  0.49494447  1
  C  C129  1  0.33270029  0.65513150  0.25593679  1
  C  C130  1  0.33377600  0.98417807  0.41284576  1
  H  H131  1  0.31012574  0.97639364  0.45819175  1
  C  C132  1  0.44540335  0.59277647  0.25446644  1
  H  H133  1  0.49972373  0.90226191  0.42438033  1
  C  C134  1  0.35224137  0.77885920  0.51789388  1
  C  C135  1  0.02781080  0.61254135  0.54116207  1
  C  C136  1  0.26670696  0.89031209  0.58560322  1
  H  H137  1  0.18470002  0.71120482  0.54377741  1
  C  C138  1  0.03211925  0.64424319  0.68393231  1
  H  H139  1  0.46679170  0.57697151  0.65967499  1
  C  C140  1  0.29400837  0.82188570  0.63132924  1
  C  C141  1  0.36695588  0.72685845  0.61943600  1
  C  C142  1  0.39506837  0.69915658  0.55975161  1
  N  N143  1  0.15458500  0.89482611  0.72009919  1
  H  H144  1  0.06495610  0.68311839  0.64278635  1
  C  C145  1  0.36718430  0.67547957  0.71813222  1
  C  C146  1  0.10404175  0.58320089  0.71801048  1
  C  C147  1  0.40508710  0.65525637  0.66466767  1
  H  H148  1  0.24712908  0.83194112  0.67257045  1
  N  N149  1  0.29560200  0.87110785  0.53143093  1
  H  H150  1  0.19435337  0.57476362  0.70625837  1
  H  H151  1  0.03272904  0.81693855  0.53395468  1
  C  C152  1  0.14502060  0.63347235  0.52946919  1
  H  H153  1  0.21010613  0.96930470  0.58517688  1
  C  C154  1  0.46787529  0.60316311  0.54705893  1
  H  H155  1  0.43425295  0.92459346  0.74530490  1
  H  H156  1  0.37263144  0.74030575  0.96217772  1
  C  C157  1  0.16390273  0.89235276  0.91172818  1
  C  C158  1  0.33916200  0.68288900  0.76765391  1
  N  N159  1  0.42746072  0.74313463  0.93069518  1
  C  C160  1  0.06349833  0.85589160  0.93533438  1
  C  C161  1  0.24947558  0.52033386  0.96916065  1
  N  N162  1  0.25167165  0.58576784  0.93317012  1
  H  H163  1  0.22775593  0.70483900  0.82149049  1
  N  N164  1  0.25072727  0.91055824  0.89393012  1
  Cu  Cu165  1  0.37911628  0.83177136  0.86399099  1
  Cu  Cu166  1  0.37969562  0.60436311  0.88177409  1
  N  N167  1  0.31315629  0.71083282  0.82025367  1
  C  C168  1  0.04258557  0.94211125  0.80024085  1
  C  C169  1  0.08496586  0.86399794  0.76216282  1
  C  C170  1  0.06558632  0.53893875  0.77091859  1
  N  N171  1  0.49566991  0.50928044  0.84362436  1
  H  H172  1  0.07504355  0.76746559  0.76320510  1
  C  C173  1  0.65273566  0.33165179  0.03339475  1
  C  C174  1  0.82372733  0.08412165  0.15368864  1
  C  C175  1  0.61575929  0.36172755  0.22679405  1
  H  H176  1  0.58958219  0.17139030  0.07034090  1
  H  H177  1  0.59727838  0.11257995  0.19070159  1
  H  H178  1  0.66398353  0.33906726  0.18887917  1
  C  C179  1  0.71602139  0.46248391  0.09779135  1
  H  H180  1  0.97265012  0.25256487  0.05002541  1
  C  C181  1  0.88766442  0.29670329  0.12767097  1
  C  C182  1  0.92909428  0.40621196  0.10933863  1
  N  N183  1  0.65512914  0.36664487  0.08866770  1
  C  C184  1  0.85958565  0.19808473  0.14074617  1
  C  C185  1  0.84027030  0.47913757  0.08789077  1
  H  H186  1  0.82420474  0.05078503  0.19816764  1
  C  C187  1  0.59482573  0.22486420  0.03160821  1
  C  C188  1  0.59329802  0.47333713  0.24007127  1
  N  N189  1  0.51727706  0.13658748  0.18060575  1
  H  H190  1  0.78875484  0.47005966  0.23677486  1
  C  C191  1  0.78311204  0.01728966  0.11095123  1
  C  C192  1  0.69118901  0.04116141  0.30361986  1
  H  H193  1  0.78048963  0.18245738  0.48468262  1
  C  C194  1  0.86898091  0.03373504  0.44288482  1
  C  C195  1  0.96521183  0.09598128  0.41637560  1
  C  C196  1  0.77894104  0.08963206  0.47351425  1
  C  C197  1  0.88665992  0.36244238  0.29950433  1
  C  C198  1  0.86227782  0.45866440  0.26625006  1
  N  N199  1  0.72466988  0.13687109  0.30470345  1
  N  N200  1  0.75015483  0.34514821  0.43405622  1
  N  N201  1  0.94325194  0.20008909  0.39164717  1
  C  C202  1  0.67212736  0.40628259  0.41397699  1
  H  H203  1  0.82688533  0.29263541  0.30085038  1
  H  H204  1  0.91891143  0.05182254  0.32839638  1
  H  H205  1  0.66302772  0.19793695  0.29702400  1
  C  C206  1  0.79680892  0.44323307  0.43051313  1
  H  H207  1  0.86135449  0.23263370  0.39209406  1
  C  C208  1  0.94903642  0.00343849  0.29312664  1
  C  C209  1  0.98684954  0.35916756  0.33095056  1
  C  C210  1  0.69962374  0.00779660  0.48767172  1
  C  C211  1  0.53411500  0.27968598  0.25367096  1
  N  N212  1  0.50441787  0.06264259  0.70886032  1
  C  C213  1  0.77495035  0.32327064  0.73107196  1
  N  N214  1  0.81334643  0.04088174  0.70427023  1
  H  H215  1  0.80629554  0.28476591  0.69078367  1
  C  C216  1  0.62135560  0.44546217  0.69749658  1
  H  H217  1  0.56930286  0.18753211  0.66603913  1
  H  H218  1  0.89005074  0.48970648  0.52767128  1
  N  N219  1  0.77676000  0.45182674  0.59556001  1
  C  C220  1  0.51095531  0.17187072  0.70133951  1
  H  H221  1  0.71771413  0.42561298  0.62568045  1
  N  N222  1  0.56766438  0.47700701  0.66138557  1
  C  C223  1  0.98473006  0.00345356  0.59342362  1
  C  C224  1  0.75154229  0.01569534  0.74791709  1
  H  H225  1  0.99654796  0.05981524  0.68077193  1
  C  C226  1  0.69128465  0.40929292  0.74482055  1
  N  N227  1  0.70211106  0.47331384  0.95359502  1
  C  C228  1  0.68089676  0.40967241  0.98713921  1
  H  H229  1  0.61261630  0.30996606  0.92066703  1
  C  C230  1  0.80531138  0.30483998  0.82731898  1
  C  C231  1  0.55896027  0.18071995  0.98045994  1
  H  H232  1  0.72688539  0.42801136  0.88824893  1
  C  C233  1  0.56136540  0.23128084  0.92690422  1
  N  N234  1  0.82815383  0.27805802  0.77384213  1
  H  H235  1  0.50936462  0.20082739  0.83958542  1
  C  C236  1  0.66156645  0.43699194  0.80172461  1
  H  H237  1  0.87274195  0.26544179  0.85421871  1
  N  N238  1  0.85298278  0.03893493  0.96223833  1
  C  C239  1  0.94885674  0.10554829  0.87251527  1
  C  C240  1  0.89605084  0.06915258  0.91308423  1
  C  C241  1  0.73116166  0.39398643  0.84359418  1
  C  C242  1  0.51190556  0.16880893  0.88249856  1
  H  H243  1  0.85858345  0.11021147  0.98730115  1
  H  H244  1  0.97998085  0.34644184  0.95202150  1
  N  N245  1  0.95097465  0.49400844  0.91669574  1
  H  H246  1  0.63193504  0.00371516  0.82206158  1
  H  H247  1  0.73911583  0.11123217  0.75440130  1
  C  C248  1  0.74003089  0.64402452  0.15326260  1
  Cu  Cu249  1  0.78984947  0.79884780  0.05259604  1
  C  C250  1  0.55534636  0.61745876  0.11499967  1
  Cu  Cu251  1  0.94351118  0.93343834  0.01438706  1
  N  N252  1  0.60576139  0.80362923  0.17363565  1
  N  N253  1  0.86276924  0.65264453  0.02030250  1
  C  C254  1  0.54561384  0.73251571  0.13893536  1
  C  C255  1  0.69295878  0.74618429  0.16943221  1
  N  N256  1  0.74978014  0.95947746  0.07532743  1
  C  C257  1  0.66377491  0.57385523  0.11913792  1
  C  C258  1  0.92873238  0.83455182  0.23159202  1
  H  H259  1  0.82440407  0.61223849  0.16760986  1
  C  C260  1  0.85421167  0.57548076  0.05053123  1
  H  H261  1  0.88039038  0.75316361  0.21679920  1
  N  N262  1  0.98671200  0.83050331  0.07795744  1
  C  C263  1  0.56688631  0.85911771  0.31672278  1
  H  H264  1  0.86656261  0.71151118  0.33601823  1
  C  C265  1  0.69848147  0.70728219  0.35625838  1
  N  N266  1  0.79144690  0.75202979  0.33209417  1
  H  H267  1  0.90258785  0.85020937  0.42598644  1
  C  C268  1  0.81161536  0.55757839  0.41454095  1
  H  H269  1  0.56003172  0.82738548  0.27167608  1
  C  C270  1  0.58740074  0.75807264  0.35403074  1
  C  C271  1  0.68260626  0.92013038  0.30647579  1
  C  C272  1  0.89642179  0.89647734  0.28138712  1
  H  H273  1  0.88515068  0.61270725  0.42020451  1
  N  N274  1  0.92499744  0.55068502  0.26038365  1
  C  C275  1  0.78520813  0.85468140  0.30678039  1
  C  C276  1  0.74358075  0.88370493  0.46918307  1
  C  C277  1  0.84533554  0.91181855  0.44517653  1
  C  C278  1  0.70994430  0.59719433  0.38884968  1
  H  H279  1  0.53775556  0.51347845  0.37044051  1
  N  N280  1  0.64797330  0.91244115  0.48868932  1
  C  C281  1  0.56603860  0.58082230  0.25518734  1
  H  H282  1  0.50246410  0.58476942  0.44656394  1
  C  C283  1  0.62745499  0.50533310  0.38873080  1
  H  H284  1  0.62268725  0.66064413  0.26169535  1
  C  C285  1  0.83401751  0.72604297  0.66013775  1
  H  H286  1  0.74779596  0.71198165  0.67305277  1
  C  C287  1  0.91890184  0.66245563  0.69987638  1
  C  C288  1  0.81075153  0.54759036  0.60140426  1
  C  C289  1  0.86797869  0.85727182  0.65328609  1
  C  C290  1  0.82801718  0.93621813  0.68875729  1
  C  C291  1  0.95262783  0.69829472  0.57166519  1
  C  C292  1  0.85922047  0.65948608  0.60569540  1
  C  C293  1  0.94033376  0.88661289  0.60552826  1
  N  N294  1  0.53006504  0.52511297  0.53999788  1
  C  C295  1  0.97453789  0.51993620  0.51406623  1
  N  N296  1  0.98299631  0.81033205  0.56968856  1
  H  H297  1  0.57455874  0.50666371  0.57735709  1
  H  H298  1  0.55209517  0.70441075  0.74417716  1
  H  H299  1  0.98961241  0.98638749  0.50430366  1
  C  C300  1  0.73196444  0.68250203  0.86137347  1
  N  N301  1  0.80157145  0.70473942  0.89416958  1
  Cu  Cu302  1  0.73267518  0.64351600  0.96460133  1
  C  C303  1  0.62261481  0.79426257  0.96449666  1
  Cu  Cu304  1  0.82584445  0.87157704  0.91910514  1
  C  C305  1  0.60844523  0.73435937  0.77826641  1
  C  C306  1  0.87991627  0.61545818  0.75160366  1
  C  C307  1  0.64852189  0.65584366  0.82227417  1
  C  C308  1  0.52675669  0.77050702  0.94860380  1
  C  C309  1  0.64328118  0.84508990  0.78407496  1
  C  C310  1  0.67824011  0.95552875  0.78915333  1
  C  C311  1  0.59268210  0.53570330  0.82422049  1
  N  N312  1  0.72127649  0.82555182  0.98004768  1
  Cu  Cu313  1  0.93936666  0.65500869  0.93953455  1
  C  C314  1  0.94829401  0.55248247  0.78813997  1
  N  N315  1  0.97574156  0.82566787  0.95349364  1
  Cu  Cu316  1  0.70136232  0.99034572  0.99499001  1
  H  H317  1  0.78886837  0.62784087  0.76234917  1
  H  H318  1  0.99696606  0.90882058  0.83894464  1
  H  H319  1  0.91662248  0.51424610  0.82753162  1
