# generated using pymatgen
data_Cu3H16(C19O8)2
_symmetry_space_group_name_H-M   'P 1'
_cell_length_a   11.81902064
_cell_length_b   29.54867453
_cell_length_c   27.27761093
_cell_angle_alpha   90.00000000
_cell_angle_beta   90.00000000
_cell_angle_gamma   90.00000000
_symmetry_Int_Tables_number   1
_chemical_formula_structural   Cu3H16(C19O8)2
_chemical_formula_sum   'Cu24 H128 C304 O128'
_cell_volume   9526.33448225
_cell_formula_units_Z   8
loop_
 _symmetry_equiv_pos_site_id
 _symmetry_equiv_pos_as_xyz
  1  'x, y, z'
loop_
 _atom_site_type_symbol
 _atom_site_label
 _atom_site_symmetry_multiplicity
 _atom_site_fract_x
 _atom_site_fract_y
 _atom_site_fract_z
 _atom_site_occupancy
  H  H0  1  0.35406215  0.11362560  0.05719249  1
  O  O1  1  0.34734905  0.04253959  0.02024990  1
  C  C2  1  0.42642443  0.05905973  0.09796397  1
  C  C3  1  0.39753932  0.02760035  0.05779304  1
  C  C4  1  0.39399592  0.18831217  0.12287213  1
  C  C5  1  0.39751330  0.10498064  0.09132858  1
  O  O6  1  0.34518465  0.20243394  0.08879552  1
  C  C7  1  0.41931658  0.13642905  0.12737573  1
  O  O8  1  0.43385857  0.21219292  0.15857394  1
  H  H9  1  0.46818103  0.00011724  0.23711965  1
  O  O10  1  0.03918914  0.23238336  0.22835573  1
  O  O11  1  0.34357351  0.21748228  0.24934785  1
  H  H12  1  0.49364090  0.00798337  0.14652448  1
  C  C13  1  0.46726730  0.12180399  0.16999517  1
  C  C14  1  0.47812926  0.04391436  0.14007262  1
  H  H15  1  0.48884853  0.14511134  0.19818103  1
  H  H16  1  0.05649703  0.15273002  0.24357355  1
  O  O17  1  0.24193633  0.40832008  0.11318944  1
  H  H18  1  0.40166518  0.43446283  0.17854618  1
  Cu  Cu19  1  0.00067277  0.28935809  0.19839141  1
  H  H20  1  0.17349285  0.38336190  0.20721081  1
  C  C21  1  0.28363186  0.33690079  0.24946915  1
  C  C22  1  0.23572722  0.37991701  0.23803360  1
  C  C23  1  0.19696014  0.46038774  0.24326857  1
  C  C24  1  0.41067765  0.45059478  0.09915568  1
  H  H25  1  0.32731682  0.48819215  0.19384172  1
  C  C26  1  0.46492647  0.47544540  0.06173806  1
  O  O27  1  0.26124063  0.29995584  0.22543026  1
  C  C28  1  0.44353060  0.45420940  0.14890462  1
  O  O29  1  0.26892371  0.42511554  0.03156849  1
  C  C30  1  0.24400086  0.49300587  0.21064644  1
  C  C31  1  0.30572968  0.42523667  0.08461783  1
  H  H32  1  0.43933743  0.47057340  0.02275484  1
  Cu  Cu33  1  0.34907835  0.25508416  0.19628859  1
  O  O34  1  0.01750820  0.45963232  0.04681323  1
  H  H35  1  0.19175290  0.41663516  0.03544046  1
  C  C36  1  0.34327347  0.08924175  0.31380189  1
  C  C37  1  0.34698204  0.13317362  0.29249896  1
  C  C38  1  0.24702590  0.05928776  0.29975141  1
  C  C39  1  0.12944494  0.07204248  0.29203018  1
  C  C40  1  0.07523344  0.15469795  0.28181616  1
  C  C41  1  0.10995915  0.12160606  0.36537197  1
  H  H42  1  0.13153531  0.09125186  0.38578904  1
  C  C43  1  0.09886760  0.11801301  0.31305184  1
  C  C44  1  0.09282420  0.16379962  0.38533409  1
  C  C45  1  0.06211535  0.19648869  0.30440431  1
  C  C46  1  0.26081712  0.01137751  0.29361895  1
  O  O47  1  0.13055802  0.13839667  0.46739276  1
  C  C48  1  0.07899621  0.20223300  0.35471610  1
  C  C49  1  0.11175546  0.17304566  0.43957889  1
  C  C50  1  0.04020272  0.04584689  0.26991090  1
  O  O51  1  0.09107908  0.20991155  0.45489072  1
  C  C52  1  0.42597435  0.21074556  0.27996663  1
  C  C53  1  0.43421001  0.16274132  0.29942653  1
  C  C54  1  0.43003266  0.07658319  0.34614901  1
  H  H55  1  0.41680108  0.04573090  0.36754121  1
  H  H56  1  0.07873622  0.23613379  0.36960364  1
  C  C57  1  0.03757557  0.23602170  0.27411105  1
  O  O58  1  0.08351997  0.01622772  0.45018379  1
  C  C59  1  0.00005870  0.03675724  0.43163498  1
  H  H60  1  0.27902168  0.14502255  0.26782923  1
  C  C61  1  0.06591722  0.00044132  0.26156484  1
  O  O62  1  0.49422524  0.23728361  0.29233256  1
  O  O63  1  0.00459328  0.27165063  0.29738535  1
  C  C64  1  0.11245201  0.34914905  0.39990969  1
  C  C65  1  0.03545878  0.43707815  0.30185229  1
  C  C66  1  0.08556180  0.46603506  0.26224369  1
  H  H67  1  0.17901796  0.39264301  0.31948423  1
  C  C68  1  0.27160902  0.41981498  0.25878906  1
  H  H69  1  0.41796695  0.49535330  0.25873490  1
  C  C70  1  0.35293773  0.33880909  0.29213032  1
  C  C71  1  0.38121530  0.37877364  0.31383661  1
  Cu  Cu72  1  0.33297376  0.33304911  0.43269002  1
  O  O73  1  0.21776903  0.34422520  0.38766537  1
  C  C74  1  0.44215493  0.37918170  0.36246341  1
  O  O75  1  0.43515757  0.34249808  0.38386103  1
  C  C76  1  0.04619599  0.38258897  0.37044178  1
  O  O77  1  0.48726170  0.41395140  0.38081974  1
  C  C78  1  0.09460871  0.40392893  0.33056214  1
  O  O79  1  0.07248410  0.32705938  0.43256546  1
  O  O80  1  0.43188913  0.33466414  0.48529173  1
  H  H81  1  0.36338625  0.45421028  0.31548380  1
  C  C82  1  0.34933954  0.42195631  0.29704592  1
  H  H83  1  0.38672471  0.30833847  0.30935112  1
  O  O84  1  0.46954054  0.40809749  0.48451624  1
  C  C85  1  0.18403495  0.04111004  0.66321223  1
  Cu  Cu86  1  0.37891072  0.20345406  0.64955636  1
  O  O87  1  0.19776506  0.05681889  0.56526165  1
  C  C88  1  0.12150872  0.07763965  0.64201887  1
  C  C89  1  0.13310083  0.08425763  0.58910262  1
  C  C90  1  0.17790992  0.03484504  0.71411190  1
  O  O91  1  0.23776648  0.22691461  0.66017758  1
  O  O92  1  0.42525103  0.16127504  0.69953266  1
  C  C93  1  0.05577225  0.10624002  0.67138272  1
  O  O94  1  0.07729946  0.11550628  0.56839918  1
  C  C95  1  0.04703462  0.09894670  0.72114196  1
  H  H96  1  0.24122742  0.02141865  0.63950082  1
  H  H97  1  0.39408989  0.08078256  0.72779494  1
  Cu  Cu98  1  0.14398661  0.02906130  0.51121668  1
  C  C99  1  0.43365293  0.17123687  0.74424274  1
  C  C100  1  0.11461619  0.06477036  0.74186680  1
  H  H101  1  0.01795486  0.13177626  0.64905759  1
  O  O102  1  0.48690735  0.24761150  0.63769504  1
  C  C103  1  0.24798925  0.00156473  0.74504627  1
  Cu  Cu104  1  0.00634381  0.10950686  0.50173598  1
  C  C105  1  0.49956143  0.41158723  0.63543140  1
  H  H106  1  0.37874493  0.49547145  0.65899202  1
  C  C107  1  0.48224928  0.41137141  0.58413622  1
  H  H108  1  0.11663873  0.35042853  0.65794913  1
  C  C109  1  0.47526272  0.32795998  0.58528052  1
  C  C110  1  0.07233757  0.41622251  0.73050836  1
  C  C111  1  0.21607575  0.30237982  0.69753784  1
  C  C112  1  0.27565492  0.29081756  0.74033395  1
  O  O113  1  0.15480837  0.27920706  0.61916025  1
  C  C114  1  0.14720511  0.37295856  0.73167222  1
  C  C115  1  0.48909810  0.28486752  0.66149166  1
  C  C116  1  0.02715248  0.48938758  0.69613146  1
  H  H117  1  0.16570684  0.44734381  0.67145922  1
  O  O118  1  0.13145818  0.48657371  0.52362487  1
  C  C119  1  0.48855235  0.32943326  0.63643115  1
  C  C120  1  0.15906072  0.34218774  0.69237154  1
  H  H121  1  0.47461554  0.29586216  0.56619775  1
  H  H122  1  0.07668255  0.47297308  0.60368383  1
  C  C123  1  0.47549587  0.36889609  0.55901699  1
  C  C124  1  0.45500573  0.48726593  0.67920274  1
  C  C125  1  0.09097132  0.44871542  0.69449239  1
  C  C126  1  0.20825852  0.26920993  0.65418444  1
  C  C127  1  0.46119633  0.37013813  0.50667625  1
  H  H128  1  0.47385595  0.44077225  0.55938859  1
  H  H129  1  0.32925960  0.26179932  0.74719639  1
  H  H130  1  0.26694661  0.05597697  0.87533392  1
  C  C131  1  0.30240568  0.07826220  0.84911067  1
  C  C132  1  0.27514923  0.13998335  0.90921777  1
  C  C133  1  0.30828886  0.12425784  0.85891428  1
  O  O134  1  0.28914253  0.18708874  0.91994969  1
  O  O135  1  0.24153748  0.11506156  0.93909990  1
  C  C136  1  0.33173454  0.06342876  0.80185465  1
  C  C137  1  0.35789230  0.15437036  0.82475962  1
  H  H138  1  0.35971007  0.18953249  0.83390344  1
  H  H139  1  0.25607180  0.18843086  0.95369425  1
  H  H140  1  0.07989806  0.03738693  0.97843102  1
  C  C141  1  0.38668277  0.13865541  0.77911396  1
  H  H142  1  0.12063254  0.06309942  0.78050568  1
  C  C143  1  0.05324167  0.03282915  0.94019370  1
  C  C144  1  0.31210769  0.01415082  0.78940370  1
  Cu  Cu145  1  0.34392904  0.01330045  0.95831939  1
  C  C146  1  0.37300318  0.09334270  0.76491979  1
  O  O147  1  0.46861024  0.20974204  0.75764292  1
  O  O148  1  0.46509860  0.04731169  0.93033458  1
  O  O149  1  0.04245896  0.24861796  0.78160858  1
  C  C150  1  0.00564743  0.26146216  0.82145587  1
  H  H151  1  0.37189308  0.27136769  0.86958642  1
  H  H152  1  0.29264520  0.49371271  0.76366023  1
  O  O153  1  0.36577994  0.27085903  0.83496437  1
  C  C154  1  0.30247724  0.31400472  0.82912407  1
  C  C155  1  0.25026640  0.31929663  0.77911007  1
  O  O156  1  0.28172021  0.33655193  0.86284496  1
  C  C157  1  0.19036343  0.36080303  0.77706270  1
  H  H158  1  0.16690069  0.37987116  0.80914297  1
  H  H159  1  0.00824875  0.33159759  0.75860888  1
  C  C160  1  0.36127067  0.65347430  0.16471328  1
  C  C161  1  0.34327145  0.62019608  0.13033639  1
  C  C162  1  0.24892557  0.60538224  0.22199218  1
  C  C163  1  0.31184988  0.64430507  0.21068602  1
  C  C164  1  0.24184727  0.57354200  0.18336344  1
  C  C165  1  0.28475076  0.57979589  0.13701776  1
  C  C166  1  0.17722795  0.53174699  0.19975319  1
  H  H167  1  0.27558802  0.55296577  0.10861821  1
  C  C168  1  0.38914779  0.62687095  0.07726005  1
  O  O169  1  0.36241606  0.59549509  0.04455615  1
  H  H170  1  0.41138347  0.68421414  0.15814442  1
  C  C171  1  0.06265194  0.53613033  0.21709209  1
  O  O172  1  0.45109668  0.65645273  0.07077829  1
  O  O173  1  0.38132834  0.71319641  0.23989226  1
  C  C174  1  0.01010314  0.58337389  0.20500748  1
  H  H175  1  0.00406562  0.56960000  0.12628910  1
  C  C176  1  0.01218411  0.50170941  0.24532089  1
  Cu  Cu177  1  0.39613340  0.92599551  0.05285882  1
  O  O178  1  0.34712885  0.92111156  0.11258136  1
  C  C179  1  0.26765734  0.88962938  0.18549892  1
  C  C180  1  0.32256865  0.88326627  0.13537730  1
  H  H181  1  0.29904824  0.81798756  0.20862742  1
  H  H182  1  0.26755121  0.95977785  0.17964015  1
  O  O183  1  0.33959925  0.84726845  0.11800701  1
  C  C184  1  0.25202114  0.93228245  0.20456439  1
  C  C185  1  0.26455301  0.85199621  0.21764245  1
  O  O186  1  0.43938879  0.98774223  0.05881964  1
  C  C187  1  0.20220369  0.60104384  0.37383175  1
  O  O188  1  0.16425914  0.60955296  0.41582794  1
  O  O189  1  0.15206389  0.61359203  0.33434772  1
  C  C190  1  0.30767784  0.57632174  0.37201795  1
  H  H191  1  0.32987097  0.57323693  0.29220918  1
  C  C192  1  0.36585449  0.56590817  0.32795949  1
  Cu  Cu193  1  0.05869141  0.57528084  0.45753705  1
  C  C194  1  0.36625641  0.56658819  0.41671180  1
  H  H195  1  0.32188939  0.57999179  0.45000812  1
  Cu  Cu196  1  0.14554349  0.67029438  0.31000584  1
  O  O197  1  0.30266490  0.66812032  0.29495662  1
  C  C198  1  0.46320372  0.54146351  0.41985162  1
  H  H199  1  0.21303176  0.59799551  0.25625095  1
  O  O200  1  0.17227385  0.55460609  0.49441060  1
  C  C201  1  0.47586541  0.54908399  0.33197316  1
  H  H202  1  0.37036079  0.53228925  0.49749016  1
  C  C203  1  0.33605237  0.67514297  0.25271070  1
  H  H204  1  0.00188750  0.94871506  0.41975081  1
  C  C205  1  0.49125065  0.88911199  0.31056148  1
  C  C206  1  0.21296893  0.93726748  0.25297397  1
  C  C207  1  0.46130543  0.93591612  0.38457553  1
  O  O208  1  0.45881798  0.80767499  0.31400571  1
  C  C209  1  0.44647586  0.89537979  0.35738134  1
  H  H210  1  0.34465531  0.99666139  0.30723710  1
  O  O211  1  0.36786836  0.90511211  0.45456822  1
  H  H212  1  0.39899512  0.86874775  0.37481100  1
  H  H213  1  0.03255661  0.90862348  0.29053713  1
  C  C214  1  0.18022874  0.98490122  0.27038936  1
  O  O215  1  0.18362133  0.82553667  0.34083165  1
  O  O216  1  0.25836937  0.78195254  0.28327720  1
  C  C217  1  0.23510423  0.85863956  0.26605915  1
  H  H218  1  0.18147576  0.90374823  0.32361500  1
  C  C219  1  0.20347146  0.90109547  0.28502133  1
  Cu  Cu220  1  0.42012553  0.75752506  0.27962068  1
  Cu  Cu221  1  0.03797609  0.84093750  0.36012003  1
  C  C222  1  0.22914877  0.81999739  0.30048553  1
  O  O223  1  0.42423571  0.97662596  0.46541367  1
  C  C224  1  0.41627342  0.93578940  0.43677766  1
  C  C225  1  0.49146655  0.84214559  0.28917548  1
  H  H226  1  0.49749690  0.98820331  0.45241048  1
  H  H227  1  0.14976293  0.61419301  0.56414144  1
  C  C228  1  0.11416000  0.54214574  0.58076143  1
  C  C229  1  0.11929368  0.58755843  0.58998676  1
  C  C230  1  0.08705653  0.60493760  0.63574926  1
  Cu  Cu231  1  0.16176355  0.73813266  0.62302472  1
  C  C232  1  0.05621178  0.52604587  0.66079298  1
  C  C233  1  0.05523677  0.57357437  0.67062186  1
  C  C234  1  0.08856280  0.65350469  0.64748972  1
  O  O235  1  0.13513993  0.67904455  0.61631794  1
  C  C236  1  0.41588594  0.59582242  0.73240388  1
  C  C237  1  0.48834865  0.51324022  0.72038514  1
  C  C238  1  0.40029956  0.54878281  0.73877631  1
  C  C239  1  0.14280967  0.52703933  0.52873809  1
  O  O240  1  0.44526389  0.52572365  0.51421666  1
  H  H241  1  0.03100748  0.58771657  0.70674552  1
  O  O242  1  0.05324257  0.66523156  0.68872484  1
  H  H243  1  0.49029594  0.60909041  0.71189369  1
  O  O244  1  0.46280609  0.68661497  0.73741114  1
  C  C245  1  0.08431898  0.50846635  0.61503344  1
  Cu  Cu246  1  0.01791736  0.72616218  0.69759465  1
  H  H247  1  0.24547910  0.75383880  0.70631651  1
  O  O248  1  0.30928816  0.75643995  0.62902620  1
  C  C249  1  0.01693901  0.85265113  0.65423376  1
  C  C250  1  0.27603621  0.87545211  0.74653218  1
  C  C251  1  0.01149974  0.80318951  0.65539940  1
  O  O252  1  0.09859684  0.91905269  0.51813096  1
  C  C253  1  0.25205191  0.78699008  0.71984113  1
  C  C254  1  0.06003012  0.86878206  0.60971332  1
  C  C255  1  0.03943527  0.94408383  0.64294494  1
  C  C256  1  0.31245727  0.86345512  0.69859729  1
  O  O257  1  0.04600163  0.78027655  0.62018101  1
  H  H258  1  0.04596805  0.98179056  0.63882443  1
  O  O259  1  0.09197208  0.98451702  0.55473633  1
  C  C260  1  0.32460237  0.80094854  0.63612079  1
  H  H261  1  0.07928243  0.84575519  0.57843948  1
  C  C262  1  0.29538061  0.81870312  0.68663560  1
  H  H263  1  0.35649076  0.88451639  0.67045857  1
  H  H264  1  0.21016115  0.94579159  0.69422955  1
  O  O265  1  0.35769038  0.82576658  0.60538889  1
  C  C266  1  0.09474620  0.93891715  0.55626763  1
  C  C267  1  0.07222168  0.91567353  0.60492445  1
  C  C268  1  0.25299368  0.95639073  0.72981423  1
  O  O269  1  0.39164275  0.63427121  0.86353192  1
  H  H270  1  0.19123569  0.62943220  0.80385140  1
  O  O271  1  0.32444821  0.69322771  0.79144193  1
  C  C272  1  0.23010718  0.56159449  0.78288375  1
  C  C273  1  0.24513053  0.60819690  0.78137555  1
  H  H274  1  0.44000028  0.57161474  0.80782783  1
  Cu  Cu275  1  0.37706790  0.69283548  0.85576711  1
  O  O276  1  0.06366338  0.57421373  0.83724017  1
  C  C277  1  0.13480580  0.54212425  0.81318385  1
  Cu  Cu278  1  0.44299295  0.58526024  0.98637866  1
  O  O279  1  0.10630535  0.72529217  0.75917683  1
  C  C280  1  0.46592602  0.61707055  0.88994163  1
  C  C281  1  0.37522352  0.67138766  0.75758014  1
  C  C282  1  0.33825263  0.62385372  0.75569674  1
  O  O283  1  0.48113949  0.62656771  0.93585678  1
  O  O284  1  0.11434430  0.50285094  0.81831313  1
  H  H285  1  0.00090711  0.55452783  0.84861841  1
  H  H286  1  0.11133004  0.70483331  0.78480577  1
  O  O287  1  0.48300567  0.74183632  0.86154171  1
  C  C288  1  0.30561529  0.53077649  0.76236141  1
  O  O289  1  0.22944138  0.97787746  0.97056785  1
  O  O290  1  0.13147767  0.76379799  0.83556944  1
  C  C291  1  0.30267214  0.92362110  0.76077507  1
  C  C292  1  0.46959541  0.82248948  0.84915517  1
  C  C293  1  0.46799856  0.87100828  0.91765024  1
  C  C294  1  0.35978615  0.93473212  0.80599358  1
  C  C295  1  0.48144764  0.77445180  0.83109496  1
  C  C296  1  0.20747261  0.80197493  0.76493391  1
  C  C297  1  0.44574019  0.85824662  0.81625667  1
  H  H298  1  0.43691344  0.85072146  0.77676391  1
  H  H299  1  0.04146810  0.94525505  0.78651140  1
  C  C300  1  0.47946345  0.87975990  0.97178325  1
  H  H301  1  0.06879377  0.95177067  0.84954581  1
  H  H302  1  0.42519775  0.93959182  0.90445821  1
  O  O303  1  0.45040220  0.91892758  0.98989204  1
  C  C304  1  0.17517920  0.96162317  0.93084260  1
  H  H305  1  0.41908886  0.99518267  0.85033396  1
  C  C306  1  0.36687150  0.98114422  0.81851732  1
  O  O307  1  0.20544975  0.92761753  0.91308418  1
  C  C308  1  0.43680530  0.90756088  0.88838659  1
  C  C309  1  0.04307252  0.98392497  0.86809278  1
  C  C310  1  0.41702621  0.90018667  0.83827249  1
  C  C311  1  0.22896191  0.84602310  0.78248545  1
  C  C312  1  0.14745851  0.76549924  0.79378195  1
  H  H313  1  0.20330412  0.85539387  0.82108941  1
  C  C314  1  0.48360446  0.82751738  0.89924641  1
  C  C315  1  0.08784187  0.99430452  0.91270978  1
  C  C316  1  0.69008652  0.12068200  0.15152780  1
  C  C317  1  0.76153148  0.19581739  0.13785384  1
  H  H318  1  0.66173633  0.09061257  0.13390572  1
  C  C319  1  0.69093499  0.12854707  0.20304444  1
  C  C320  1  0.75157255  0.20358627  0.18812287  1
  C  C321  1  0.72278983  0.15534706  0.11976330  1
  H  H322  1  0.78390855  0.22298997  0.11061465  1
  C  C323  1  0.56305429  0.06166383  0.22337180  1
  C  C324  1  0.71516413  0.17139469  0.22182585  1
  H  H325  1  0.87837081  0.01106546  0.19382768  1
  O  O326  1  0.67902328  0.10481980  0.04539211  1
  C  C327  1  0.70925102  0.14841400  0.06427490  1
  O  O328  1  0.72023193  0.18122762  0.04004159  1
  H  H329  1  0.68168758  0.11188560  0.01045202  1
  H  H330  1  0.68262301  0.01350068  0.12079233  1
  O  O331  1  0.74342827  0.01167594  0.14543447  1
  C  C332  1  0.50405083  0.07599941  0.17622202  1
  C  C333  1  0.66037265  0.08861236  0.23586844  1
  C  C334  1  0.53428670  0.02039121  0.24962499  1
  C  C335  1  0.79020875  0.24599892  0.20825519  1
  O  O336  1  0.85832342  0.26830423  0.18031985  1
  C  C337  1  0.91309668  0.37185315  0.20378268  1
  O  O338  1  0.97584921  0.34688891  0.17751611  1
  C  C339  1  0.93100169  0.42843682  0.13671704  1
  O  O340  1  0.88669910  0.36354061  0.24667178  1
  H  H341  1  0.76797364  0.42974794  0.23890771  1
  C  C342  1  0.80727209  0.44366451  0.20702563  1
  C  C343  1  0.88174281  0.41679289  0.18175639  1
  C  C344  1  0.77925154  0.48579583  0.18446622  1
  C  C345  1  0.95710519  0.48441410  0.06797542  1
  C  C346  1  0.52493515  0.48905189  0.15894043  1
  C  C347  1  0.90893555  0.47114967  0.11788553  1
  H  H348  1  0.98939972  0.40690918  0.11913552  1
  H  H349  1  0.89703792  0.35059638  0.01288371  1
  H  H350  1  0.78826401  0.09826825  0.29467623  1
  C  C351  1  0.72197023  0.07556624  0.27869751  1
  C  C352  1  0.70151348  0.03295991  0.30089940  1
  C  C353  1  0.84714229  0.03711187  0.37150663  1
  C  C354  1  0.59792811  0.09803088  0.39281635  1
  O  O355  1  0.67326388  0.12492999  0.40016543  1
  H  H356  1  0.65844877  0.06386992  0.44238027  1
  H  H357  1  0.59869202  0.17440860  0.33739295  1
  H  H358  1  0.84533496  0.07459319  0.37524032  1
  O  O359  1  0.59148495  0.05947106  0.42056728  1
  H  H360  1  0.71584970  0.17632806  0.26123231  1
  C  C361  1  0.52300309  0.15212501  0.33125309  1
  C  C362  1  0.60618901  0.00493218  0.28684096  1
  C  C363  1  0.77532437  0.01210865  0.34057553  1
  O  O364  1  0.74046267  0.04962659  0.49093258  1
  C  C365  1  0.92666139  0.01228812  0.39868324  1
  H  H366  1  0.95032973  0.05663325  0.26385150  1
  C  C367  1  0.51180253  0.11000976  0.35459668  1
  H  H368  1  0.53282527  0.00381086  0.38207372  1
  O  O369  1  0.98064203  0.07821680  0.44473869  1
  C  C370  1  0.93451422  0.39138244  0.38527881  1
  C  C371  1  0.77263466  0.44509433  0.38460042  1
  Cu  Cu372  1  0.57587413  0.41942596  0.43961536  1
  H  H373  1  0.89515624  0.48300838  0.30963518  1
  Cu  Cu374  1  0.87879889  0.30422401  0.27860104  1
  O  O375  1  0.72458842  0.41953314  0.41569683  1
  C  C376  1  0.88322147  0.42775895  0.36231577  1
  C  C377  1  0.93509265  0.45348113  0.32422084  1
  H  H378  1  0.89685898  0.37383519  0.41740039  1
  O  O379  1  0.73254312  0.47952649  0.36809163  1
  O  O380  1  0.77739640  0.25741312  0.25200976  1
  H  H381  1  0.91179847  0.05157677  0.61931567  1
  H  H382  1  0.74731341  0.04551330  0.70793699  1
  C  C383  1  0.80195935  0.05458051  0.52547028  1
  O  O384  1  0.85488552  0.09302426  0.52868408  1
  C  C385  1  0.85893325  0.02043116  0.60943832  1
  O  O386  1  0.91717781  0.15791500  0.73133416  1
  C  C387  1  0.81420043  0.02461926  0.72413444  1
  C  C388  1  0.80215756  0.01720525  0.56357958  1
  Cu  Cu389  1  0.95802725  0.21808293  0.73124269  1
  Cu  Cu390  1  0.60150072  0.24168270  0.74375974  1
  O  O391  1  0.97700388  0.37284997  0.56149618  1
  C  C392  1  0.90831090  0.39687035  0.57925785  1
  O  O393  1  0.88239513  0.44293587  0.56036949  1
  H  H394  1  0.51129439  0.36759073  0.70194980  1
  H  H395  1  0.75166131  0.44929561  0.61785908  1
  C  C396  1  0.52864662  0.45026100  0.67020062  1
  C  C397  1  0.79768425  0.33077148  0.68613507  1
  O  O398  1  0.85559321  0.25421904  0.69056082  1
  C  C399  1  0.72969529  0.36430265  0.70619449  1
  C  C400  1  0.79664699  0.28450114  0.70806468  1
  C  C401  1  0.85229450  0.38548698  0.62679083  1
  C  C402  1  0.63069644  0.44366889  0.69969318  1
  C  C403  1  0.71535514  0.40778894  0.68530222  1
  O  O404  1  0.73200466  0.27838487  0.74500550  1
  H  H405  1  0.92140339  0.31779784  0.62926753  1
  C  C406  1  0.65802468  0.47301787  0.73876121  1
  H  H407  1  0.67506723  0.35304907  0.73677049  1
  C  C408  1  0.77046065  0.41820701  0.64140375  1
  C  C409  1  0.87010709  0.34328698  0.64762550  1
  C  C410  1  0.50359146  0.37038763  0.66083727  1
  O  O411  1  0.52466469  0.28533820  0.70449716  1
  C  C412  1  0.93974575  0.49590369  0.73367791  1
  H  H413  1  0.93557224  0.44439748  0.53566218  1
  C  C414  1  0.61462961  0.05807447  0.86593811  1
  C  C415  1  0.65329867  0.12531972  0.82690681  1
  C  C416  1  0.64296909  0.17768202  0.81999548  1
  C  C417  1  0.74942989  0.05657970  0.80186772  1
  C  C418  1  0.73010968  0.10382252  0.79498998  1
  H  H419  1  0.88545213  0.07738638  0.85129305  1
  O  O420  1  0.90950954  0.13921461  0.89910060  1
  C  C421  1  0.93796454  0.05367374  0.87086408  1
  C  C422  1  0.59302395  0.10498254  0.86302449  1
  O  O423  1  0.61550698  0.19953104  0.85535652  1
  C  C424  1  0.69325102  0.03193851  0.83993654  1
  O  O425  1  0.68157284  0.19617096  0.77964681  1
  C  C426  1  0.55051347  0.03163508  0.90542907  1
  C  C427  1  0.83123729  0.02643854  0.77480711  1
  Cu  Cu428  1  0.98491041  0.16912900  0.84677397  1
  H  H429  1  0.53756489  0.12295506  0.89018935  1
  O  O430  1  0.98557149  0.23392226  0.85681050  1
  C  C431  1  0.96440774  0.01378092  0.84641530  1
  H  H432  1  0.78752788  0.12323560  0.76943516  1
  C  C433  1  0.98611467  0.06551010  0.91618447  1
  C  C434  1  0.95020661  0.11154120  0.93478333  1
  O  O435  1  0.97434167  0.12416888  0.79891839  1
  O  O436  1  0.97078354  0.12465786  0.97492169  1
  C  C437  1  0.92126859  0.00001358  0.79794375  1
  C  C438  1  0.97994330  0.12765256  0.75292533  1
  O  O439  1  0.88048336  0.49842185  0.88122235  1
  C  C440  1  0.93687057  0.39451030  0.85805944  1
  C  C441  1  0.92337993  0.36127559  0.89473225  1
  C  C442  1  0.98084846  0.30888985  0.83403860  1
  C  C443  1  0.96607687  0.38529542  0.80910459  1
  H  H444  1  0.73471749  0.46911552  0.75897812  1
  C  C445  1  0.90659914  0.37002459  0.94891209  1
  O  O446  1  0.91458283  0.33287374  0.98311615  1
  O  O447  1  0.87400885  0.40545626  0.96413095  1
  C  C448  1  0.92258088  0.46194812  0.76921858  1
  C  C449  1  0.98921008  0.42144557  0.77015899  1
  C  C450  1  0.98478199  0.34012206  0.79646252  1
  H  H451  1  0.85826100  0.46849932  0.79984187  1
  H  H452  1  0.94379877  0.28930251  0.91024977  1
  H  H453  1  0.92332711  0.43110376  0.87131186  1
  C  C454  1  0.94257096  0.31645446  0.88190619  1
  H  H455  1  0.64641040  0.53842344  0.12881076  1
  H  H456  1  0.82152604  0.53526610  0.12831766  1
  O  O457  1  0.69865982  0.54942429  0.04278209  1
  O  O458  1  0.92490606  0.52372467  0.05059882  1
  C  C459  1  0.60036427  0.53683351  0.03412759  1
  C  C460  1  0.68801195  0.51294743  0.20981259  1
  H  H461  1  0.90658255  0.70551195  0.17567051  1
  O  O462  1  0.91419933  0.69988700  0.08701526  1
  C  C463  1  0.94891961  0.63955993  0.14607524  1
  C  C464  1  0.92253108  0.66124078  0.09634142  1
  C  C465  1  0.96361517  0.65646661  0.23137190  1
  C  C466  1  0.93617273  0.67062655  0.18374526  1
  O  O467  1  0.92674773  0.63142036  0.05360838  1
  C  C468  1  0.98953280  0.59510783  0.15545307  1
  H  H469  1  0.81223096  0.56196841  0.23326437  1
  C  C470  1  0.72972404  0.54901714  0.24156537  1
  C  C471  1  0.57594144  0.51398751  0.12115486  1
  C  C472  1  0.83506813  0.50109312  0.14203861  1
  H  H473  1  0.94531323  0.60361699  0.06911550  1
  C  C474  1  0.54777766  0.50597061  0.07293743  1
  C  C475  1  0.56920239  0.50291159  0.20975546  1
  C  C476  1  0.98460478  0.61198576  0.24377549  1
  Cu  Cu477  1  0.81702691  0.53098387  0.00101948  1
  O  O478  1  0.62873710  0.95029452  0.15483970  1
  C  C479  1  0.79931207  0.94913475  0.20053130  1
  H  H480  1  0.73038633  0.88053534  0.21174881  1
  C  C481  1  0.88668703  0.97918703  0.21420249  1
  H  H482  1  0.56944859  0.92329151  0.24818631  1
  C  C483  1  0.79539235  0.90520860  0.22110648  1
  O  O484  1  0.53547976  0.84045575  0.24967233  1
  C  C485  1  0.71589055  0.96681431  0.16410302  1
  C  C486  1  0.97231343  0.96686945  0.24633211  1
  C  C487  1  0.64492114  0.64572949  0.30123878  1
  C  C488  1  0.68207745  0.68470137  0.32602660  1
  C  C489  1  0.64301153  0.73034959  0.31420538  1
  C  C490  1  0.69430783  0.60417174  0.31105624  1
  C  C491  1  0.76083812  0.67951273  0.36479510  1
  C  C492  1  0.80458511  0.63771901  0.37417492  1
  C  C493  1  0.77252942  0.59818082  0.34968546  1
  C  C494  1  0.66109845  0.56069652  0.28179458  1
  H  H495  1  0.81486102  0.56553241  0.35690321  1
  H  H496  1  0.79157909  0.70843202  0.38576723  1
  C  C497  1  0.88961413  0.63063337  0.41519003  1
  O  O498  1  0.92788607  0.66237277  0.43727476  1
  O  O499  1  0.92300418  0.58969642  0.42195014  1
  O  O500  1  0.57852618  0.73913857  0.27846443  1
  C  C501  1  0.55329752  0.53870711  0.28774978  1
  H  H502  1  0.58094350  0.64723569  0.27229872  1
  H  H503  1  0.92068776  0.50303949  0.25421123  1
  C  C504  1  0.95322575  0.68938594  0.27179291  1
  C  C505  1  0.50971349  0.52418766  0.46817433  1
  C  C506  1  0.52472953  0.53488150  0.37581196  1
  O  O507  1  0.92115564  0.72943443  0.25711667  1
  H  H508  1  0.61083259  0.51862626  0.37682247  1
  C  C509  1  0.50633303  0.50906636  0.25457166  1
  O  O510  1  0.60423037  0.51151509  0.47162410  1
  H  H511  1  0.97428243  0.60012216  0.28214342  1
  O  O512  1  0.99062889  0.68096464  0.31250374  1
  C  C513  1  0.96964747  0.92301762  0.26432094  1
  C  C514  1  0.93757299  0.96504346  0.39647137  1
  Cu  Cu515  1  0.69301709  0.82388002  0.32627826  1
  H  H516  1  0.71700327  0.94599977  0.31623866  1
  O  O517  1  0.98091939  0.83547069  0.29561166  1
  O  O518  1  0.80090101  0.82396134  0.27170589  1
  C  C519  1  0.88362596  0.89201728  0.25127351  1
  O  O520  1  0.68630781  0.76295449  0.33829568  1
  C  C521  1  0.83993491  0.89325660  0.37667391  1
  C  C522  1  0.51527358  0.97196180  0.36298153  1
  C  C523  1  0.85696857  0.94203102  0.36965004  1
  C  C524  1  0.54034025  0.92623847  0.28561563  1
  C  C525  1  0.55005629  0.96585335  0.31352002  1
  H  H526  1  0.92143286  0.75962234  0.27154960  1
  C  C527  1  0.77503260  0.96512324  0.34083948  1
  O  O528  1  0.91652422  0.86744543  0.39401002  1
  C  C529  1  0.88912964  0.84671790  0.27383903  1
  O  O530  1  0.74906262  0.87706277  0.36137637  1
  C  C531  1  0.66125427  0.56124991  0.62040354  1
  C  C532  1  0.71727085  0.56383863  0.66891765  1
  C  C533  1  0.79262971  0.52881741  0.68250827  1
  C  C534  1  0.70072268  0.60465297  0.69457696  1
  H  H535  1  0.64654665  0.63037049  0.68066627  1
  C  C536  1  0.85818529  0.53498050  0.72421393  1
  O  O537  1  0.60883669  0.59206762  0.60515082  1
  H  H538  1  0.62362928  0.53067495  0.56364535  1
  O  O539  1  0.67434309  0.52094180  0.59143775  1
  C  C540  1  0.76858928  0.60726120  0.73631158  1
  O  O541  1  0.69466563  0.68290972  0.73971919  1
  H  H542  1  0.80427713  0.50164701  0.65608863  1
  H  H543  1  0.71769529  0.97504787  0.51271181  1
  C  C544  1  0.77048005  0.94631424  0.63104268  1
  O  O545  1  0.61716391  0.90418268  0.51805019  1
  H  H546  1  0.58574585  0.87340476  0.51696868  1
  O  O547  1  0.98523197  0.78583641  0.69701058  1
  C  C548  1  0.99654819  0.92317058  0.68553004  1
  C  C549  1  0.97696971  0.87733351  0.69384334  1
  C  C550  1  0.83292781  0.98558229  0.64395676  1
  H  H551  1  0.93923482  0.86590364  0.72870547  1
  C  C552  1  0.73614821  0.94086099  0.58276168  1
  C  C553  1  0.87247569  0.99086254  0.69691148  1
  H  H554  1  0.74733232  0.92332799  0.66023396  1
  C  C555  1  0.74659623  0.97816962  0.55044629  1
  C  C556  1  0.94845662  0.95946104  0.71910202  1
  O  O557  1  0.64713772  0.87087831  0.59359159  1
  C  C558  1  0.66552205  0.90134314  0.56828707  1
  O  O559  1  0.80805047  0.66256756  0.79888388  1
  C  C560  1  0.64646133  0.57380390  0.89212339  1
  H  H561  1  0.66390012  0.58843646  0.92663770  1
  H  H562  1  0.90546108  0.57989371  0.78421216  1
  C  C563  1  0.59822598  0.53398085  0.80100398  1
  C  C564  1  0.72049584  0.54254018  0.87162286  1
  O  O565  1  0.85387987  0.55018780  0.93868371  1
  C  C566  1  0.82728890  0.52913032  0.89902940  1
  C  C567  1  0.69692886  0.52288923  0.82571012  1
  C  C568  1  0.54752651  0.58673550  0.86866134  1
  Cu  Cu569  1  0.59275991  0.72097665  0.76384388  1
  C  C570  1  0.75699942  0.65345624  0.76279177  1
  C  C571  1  0.84791150  0.57576374  0.75152643  1
  O  O572  1  0.55153401  0.54331763  0.99453645  1
  H  H573  1  0.75829483  0.50073437  0.80569365  1
  C  C574  1  0.52271806  0.56599368  0.82374361  1
  C  C575  1  0.58210586  0.50868119  0.75321506  1
  H  H576  1  0.50428614  0.79933904  0.92540904  1
  O  O577  1  0.50452860  0.76977986  0.78748793  1
  O  O578  1  0.58490178  0.99474302  0.90977222  1
  C  C579  1  0.97405683  0.96558105  0.76996329  1
  O  O580  1  0.50701346  0.84839303  0.99638741  1
  H  H581  1  0.70824277  0.99522908  0.84686586  1
  C  C582  1  0.79211173  0.88049499  0.78974933  1
  O  O583  1  0.75651579  0.85590840  0.76590680  1
