# generated using pymatgen
data_Cu2H16C21(NO4)2
_symmetry_space_group_name_H-M   'P 1'
_cell_length_a   14.23302023
_cell_length_b   15.24350289
_cell_length_c   24.68062379
_cell_angle_alpha   90.00000000
_cell_angle_beta   90.00000000
_cell_angle_gamma   90.00000000
_symmetry_Int_Tables_number   1
_chemical_formula_structural   Cu2H16C21(NO4)2
_chemical_formula_sum   'Cu18 H144 C189 N18 O72'
_cell_volume   5354.73491662
_cell_formula_units_Z   9
loop_
 _symmetry_equiv_pos_site_id
 _symmetry_equiv_pos_as_xyz
  1  'x, y, z'
loop_
 _atom_site_type_symbol
 _atom_site_label
 _atom_site_symmetry_multiplicity
 _atom_site_fract_x
 _atom_site_fract_y
 _atom_site_fract_z
 _atom_site_occupancy
  O  O0  1  0.16022350  0.36780447  0.12230786  1
  C  C1  1  0.23457069  0.34983230  0.09768824  1
  C  C2  1  0.31683942  0.33614055  0.19313177  1
  H  H3  1  0.14440392  0.18655155  0.02417708  1
  Cu  Cu4  1  0.07788116  0.28119162  0.13985374  1
  H  H5  1  0.34162242  0.26635413  0.02653213  1
  C  C6  1  0.22720363  0.35285186  0.03750051  1
  C  C7  1  0.07100536  0.19959798  0.02433762  1
  C  C8  1  0.28556404  0.30041779  0.00739366  1
  N  N9  1  0.25203421  0.37032662  0.22364574  1
  O  O10  1  0.31206043  0.33777699  0.12173136  1
  H  H11  1  0.38226080  0.37836779  0.19539154  1
  H  H12  1  0.32738610  0.26108311  0.19798468  1
  H  H13  1  0.11961655  0.44431129  0.03922723  1
  C  C14  1  0.15056681  0.02210574  0.18014957  1
  C  C15  1  0.18673741  0.32130229  0.24852440  1
  N  N16  1  0.03071957  0.23945312  0.06260842  1
  C  C17  1  0.16266235  0.40395179  0.01295359  1
  H  H18  1  0.12664980  0.05259336  0.21632898  1
  C  C19  1  0.09572293  0.00111327  0.13856098  1
  H  H20  1  0.23125850  0.01530870  0.17658410  1
  H  H21  1  0.01958617  0.02324739  0.13589276  1
  H  H22  1  0.25277093  0.49795280  0.15009627  1
  H  H23  1  0.33186798  0.49161447  0.05603929  1
  H  H24  1  0.31009525  0.15517931  0.34769258  1
  C  C25  1  0.11996928  0.19147512  0.29309978  1
  C  C26  1  0.19303181  0.23342338  0.26605442  1
  H  H27  1  0.45594559  0.32682968  0.46046655  1
  O  O28  1  0.18375594  0.04513558  0.31185796  1
  C  C29  1  0.37489583  0.24472686  0.40389779  1
  C  C30  1  0.36065363  0.16040952  0.38001022  1
  H  H31  1  0.30501510  0.13715708  0.47190169  1
  C  C32  1  0.42078183  0.09616637  0.39581873  1
  H  H33  1  0.26388603  0.42631155  0.39571237  1
  O  O34  1  0.41698790  0.44949427  0.39562529  1
  N  N35  1  0.31833772  0.30782289  0.38570079  1
  O  O36  1  0.04129091  0.08000086  0.33637880  1
  C  C37  1  0.44629927  0.26083095  0.44304534  1
  C  C38  1  0.32370652  0.38651397  0.40814277  1
  H  H39  1  0.32201817  0.37361192  0.45089546  1
  C  C40  1  0.11427211  0.10224834  0.31680109  1
  C  C41  1  0.03546547  0.33416365  0.28756296  1
  C  C42  1  0.10942131  0.37765117  0.26228252  1
  C  C43  1  0.41575377  0.01029886  0.37007087  1
  C  C44  1  0.04323930  0.24684332  0.30296211  1
  C  C45  1  0.49056169  0.11146009  0.43587800  1
  O  O46  1  0.04636215  0.34539543  0.48987914  1
  H  H47  1  0.10682139  0.44978126  0.25047930  1
  H  H48  1  0.25582287  0.19763727  0.25484407  1
  C  C49  1  0.30022129  0.30484451  0.58545796  1
  H  H50  1  0.42269394  0.05007596  0.52528259  1
  H  H51  1  0.23129278  0.37229921  0.51807470  1
  O  O52  1  0.38841586  0.41152019  0.53948864  1
  C  C53  1  0.22826802  0.41799407  0.73376641  1
  C  C54  1  0.20204670  0.20967128  0.63671361  1
  C  C55  1  0.05337376  0.30120568  0.52848644  1
  C  C56  1  0.29115804  0.24535223  0.62877403  1
  O  O57  1  0.30254180  0.27570959  0.73822299  1
  H  H58  1  0.04914949  0.20094630  0.60980563  1
  O  O59  1  0.45393548  0.34055199  0.60827211  1
  C  C60  1  0.22809529  0.31974515  0.54925782  1
  H  H61  1  0.35443841  0.23051697  0.65437308  1
  C  C62  1  0.14065158  0.27804467  0.55826011  1
  N  N63  1  0.19476313  0.14270764  0.67856063  1
  H  H64  1  0.34493053  0.41013685  0.67429093  1
  C  C65  1  0.29297362  0.45119808  0.69378574  1
  C  C66  1  0.12259117  0.22502133  0.60450700  1
  Cu  Cu67  1  0.29319869  0.15045988  0.74313427  1
  H  H68  1  0.07809690  0.09438819  0.64092556  1
  C  C69  1  0.38628610  0.35585210  0.57843835  1
  C  C70  1  0.34989380  0.06801388  0.54265992  1
  C  C71  1  0.12711774  0.08844956  0.67493163  1
  O  O72  1  0.43109731  0.12747699  0.73279467  1
  H  H73  1  0.09821538  0.45670734  0.67608638  1
  C  C74  1  0.05785899  0.42407118  0.64482036  1
  H  H75  1  0.07553054  0.35564276  0.63215046  1
  C  C76  1  0.32326149  0.04728910  0.60141583  1
  H  H77  1  0.13029600  0.03030366  0.70006675  1
  H  H78  1  0.24890880  0.02400419  0.61175030  1
  H  H79  1  0.33792783  0.10716379  0.62834727  1
  O  O80  1  0.47538244  0.47722135  0.74039851  1
  C  C81  1  0.28882239  0.11631282  0.51480584  1
  H  H82  1  0.21955387  0.14290248  0.52998807  1
  Cu  Cu83  1  0.16321716  0.19335057  0.80468287  1
  H  H84  1  0.03320215  0.07747190  0.85793509  1
  C  C85  1  0.27363535  0.29769297  0.95017609  1
  O  O86  1  0.26913768  0.03303285  0.76908525  1
  C  C87  1  0.49214321  0.13771031  0.76831313  1
  O  O88  1  0.47382968  0.16182357  0.81623959  1
  C  C89  1  0.20781751  0.34612354  0.92279027  1
  C  C90  1  0.14603247  0.39788882  0.95483054  1
  Cu  Cu91  1  0.47219380  0.11618132  0.92229974  1
  O  O92  1  0.34274070  0.24507279  0.87293703  1
  H  H93  1  0.11087225  0.44328117  0.78863774  1
  C  C94  1  0.34385928  0.24498132  0.92321124  1
  Cu  Cu95  1  0.45353070  0.27335180  0.84299458  1
  N  N96  1  0.08885533  0.45349409  0.92858225  1
  O  O97  1  0.15133639  0.07926447  0.82163963  1
  H  H98  1  0.02746295  0.19881741  0.98684855  1
  O  O99  1  0.17916041  0.30216550  0.78669003  1
  H  H100  1  0.20660770  0.35304457  0.87643855  1
  C  C101  1  0.22356567  0.03082628  0.81367032  1
  O  O102  1  0.41886106  0.21328021  0.94801167  1
  C  C103  1  0.15720556  0.47087098  0.75693943  1
  H  H104  1  0.05230213  0.24625133  0.90720738  1
  C  C105  1  0.24388371  0.33243495  0.75545837  1
  H  H106  1  0.40689928  0.00259494  0.82219624  1
  H  H107  1  0.02362289  0.26942960  0.83943682  1
  H  H108  1  0.04658660  0.53284978  0.09454621  1
  C  C109  1  0.31492905  0.53391615  0.13839893  1
  C  C110  1  0.02725206  0.57822733  0.12804324  1
  O  O111  1  0.14256350  0.65059675  0.04840981  1
  C  C112  1  0.06635165  0.66231768  0.13258587  1
  O  O113  1  0.39905866  0.79599404  0.04331898  1
  C  C114  1  0.12606756  0.69307003  0.08651161  1
  Cu  Cu115  1  0.27789248  0.79411252  0.07047192  1
  C  C116  1  0.05501193  0.72433832  0.17431268  1
  H  H117  1  0.09225571  0.78744028  0.17328031  1
  O  O118  1  0.16164064  0.77575595  0.09350622  1
  O  O119  1  0.26328045  0.91917042  0.04680572  1
  O  O120  1  0.46345112  0.85832349  0.11455773  1
  C  C121  1  0.47168597  0.81322735  0.07549485  1
  C  C122  1  0.35731880  0.53082650  0.09026858  1
  H  H123  1  0.34026269  0.58376057  0.16848462  1
  H  H124  1  0.41578342  0.57778039  0.07850971  1
  H  H125  1  0.12412205  0.97319595  0.10038364  1
  C  C126  1  0.21734356  0.94192509  0.00507682  1
  O  O127  1  0.12987233  0.95352091  0.00592396  1
  Cu  Cu128  1  0.03530964  0.86444633  0.00239232  1
  H  H129  1  0.45514164  0.89452842  0.36246124  1
  H  H130  1  0.37285416  0.84943625  0.47219191  1
  O  O131  1  0.37402597  0.53929351  0.46310506  1
  O  O132  1  0.47950210  0.94646279  0.38118548  1
  O  O133  1  0.10481604  0.86582146  0.45387258  1
  C  C134  1  0.42669791  0.51925792  0.42464088  1
  O  O135  1  0.23742428  0.87584487  0.41096115  1
  C  C136  1  0.18730337  0.87091545  0.45563861  1
  H  H137  1  0.29838218  0.58222698  0.35725798  1
  Cu  Cu138  1  0.22044213  0.96046989  0.35911605  1
  H  H139  1  0.49261613  0.66641015  0.47771684  1
  H  H140  1  0.26798568  0.68318034  0.39882360  1
  C  C141  1  0.26062385  0.64502786  0.36110918  1
  O  O142  1  0.34744224  0.98969440  0.33997718  1
  H  H143  1  0.18761356  0.63399088  0.28482546  1
  C  C144  1  0.20183841  0.67038481  0.32174724  1
  H  H145  1  0.15773160  0.73003867  0.32577642  1
  C  C146  1  0.33482480  0.82911393  0.60758119  1
  C  C147  1  0.18681455  0.85642677  0.55927614  1
  H  H148  1  0.11142711  0.86769700  0.55576811  1
  C  C149  1  0.23792824  0.84025993  0.70204284  1
  H  H150  1  0.22434410  0.66306660  0.69266638  1
  C  C151  1  0.23593781  0.84221353  0.60754601  1
  C  C152  1  0.22280773  0.59387212  0.70417586  1
  C  C153  1  0.29063461  0.83142723  0.74290143  1
  H  H154  1  0.37235889  0.81341456  0.64529718  1
  C  C155  1  0.35051373  0.58977192  0.64167015  1
  Cu  Cu156  1  0.40841538  0.53853212  0.53625127  1
  O  O157  1  0.33144597  0.66227492  0.62962155  1
  C  C158  1  0.29099749  0.53944963  0.68063597  1
  H  H159  1  0.35996535  0.79671131  0.73732663  1
  N  N160  1  0.18976646  0.84920171  0.65947968  1
  C  C161  1  0.38154268  0.83267284  0.55927334  1
  O  O162  1  0.42659767  0.54757619  0.60809165  1
  C  C163  1  0.48679491  0.81285395  0.55542251  1
  H  H164  1  0.11734470  0.85229432  0.66096221  1
  H  H165  1  0.00275583  0.59226788  0.65915090  1
  O  O166  1  0.00837869  0.86123523  0.69996437  1
  C  C167  1  0.23571436  0.85623177  0.51009501  1
  C  C168  1  0.33280907  0.84900656  0.51168630  1
  H  H169  1  0.37244502  0.99472900  0.61295717  1
  H  H170  1  0.44942151  0.50801966  0.63686065  1
  C  C171  1  0.15801322  0.55803995  0.74146430  1
  H  H172  1  0.07930745  0.83938415  0.78865257  1
  C  C173  1  0.26229453  0.61958120  0.87217286  1
  C  C174  1  0.37081059  0.95267888  0.95661023  1
  H  H175  1  0.07117907  0.67272547  0.86298256  1
  C  C176  1  0.01197983  0.85264373  0.81038003  1
  H  H177  1  0.24691352  0.75357417  0.92668714  1
  H  H178  1  0.20223698  0.64956528  0.94710859  1
  H  H179  1  0.32259850  0.82691833  0.88409092  1
  H  H180  1  0.28241610  0.57905335  0.83722040  1
  H  H181  1  0.36459059  0.56173058  0.79610870  1
  C  C182  1  0.09707281  0.81811841  0.89340940  1
  C  C183  1  0.22425671  0.98338492  0.90927925  1
  C  C184  1  0.43714590  0.78092595  0.81632316  1
  C  C185  1  0.22589911  0.59407222  0.92036909  1
  H  H186  1  0.21040033  0.52650304  0.93121131  1
  H  H187  1  0.03030858  0.56832673  0.93261923  1
  C  C188  1  0.41641725  0.96971814  0.90729032  1
  N  N189  1  0.30499928  0.70124431  0.85921600  1
  C  C190  1  0.40453891  0.62698142  0.79324934  1
  H  H191  1  0.41893495  0.84526974  0.83164015  1
  O  O192  1  0.10164218  0.80585052  0.94428190  1
  C  C193  1  0.48237311  0.62852320  0.76178945  1
  C  C194  1  0.26938265  0.77603483  0.88631117  1
  C  C195  1  0.38270803  0.70453837  0.82415641  1
  O  O196  1  0.16996408  0.81513194  0.86338183  1
  H  H197  1  0.13104616  0.67636254  0.78146534  1
  N  N198  1  0.09653818  0.62266254  0.76516913  1
  C  C199  1  0.44968407  0.59343151  0.94378021  1
  H  H200  1  0.41849709  0.53053301  0.94962100  1
  C  C201  1  0.27224612  0.95607013  0.95528550  1
  H  H202  1  0.26997567  0.86327253  0.78416238  1
  C  C203  1  0.01076193  0.84478797  0.86684413  1
  H  H204  1  0.49546804  0.72101376  0.98314589  1
  H  H205  1  0.40482683  0.62509378  0.91340333  1
  C  C206  1  0.03149401  0.50581480  0.95707362  1
  H  H207  1  0.40283553  0.93502497  0.99501591  1
  C  C208  1  0.02106053  0.59347858  0.79464672  1
  H  H209  1  0.43841154  0.63320607  0.98348426  1
  C  C210  1  0.36705321  0.98336303  0.85820387  1
  H  H211  1  0.05519507  0.51052168  0.99967459  1
  C  C212  1  0.27205228  0.99707550  0.86019499  1
  C  C213  1  0.00238143  0.64406977  0.84599787  1
  H  H214  1  0.14975115  0.98601032  0.90578332  1
  N  N215  1  0.92290590  0.47347843  0.17302982  1
  H  H216  1  0.85293609  0.16792072  0.08900275  1
  C  C217  1  0.88567567  0.09576503  0.24541093  1
  C  C218  1  0.85564080  0.23053021  0.06608009  1
  C  C219  1  0.77498673  0.27922016  0.05453349  1
  O  O220  1  0.69451557  0.17266732  0.11859785  1
  C  C221  1  0.68314158  0.24825321  0.07742006  1
  C  C222  1  0.92127064  0.23232113  0.19084193  1
  C  C223  1  0.86054349  0.17682486  0.22342464  1
  C  C224  1  0.66139094  0.49003527  0.12796067  1
  H  H225  1  0.87265110  0.46610004  0.20267817  1
  H  H226  1  0.75397832  0.27226255  0.21621252  1
  O  O227  1  0.56525357  0.07193801  0.02242343  1
  O  O228  1  0.89439176  0.31139411  0.18286789  1
  C  C229  1  0.76998654  0.35584308  0.02229993  1
  H  H230  1  0.95553227  0.06541457  0.23679512  1
  C  C231  1  0.93783965  0.26714960  0.04241114  1
  H  H232  1  0.57392303  0.18800366  0.16498261  1
  C  C233  1  0.61944016  0.13811756  0.14544063  1
  O  O234  1  0.61143921  0.27749486  0.06437439  1
  Cu  Cu235  1  0.94152028  0.37538626  0.12722577  1
  H  H236  1  0.57119541  0.09497679  0.12058250  1
  H  H237  1  0.65042032  0.09395606  0.18107149  1
  H  H238  1  0.67785102  0.42253958  0.14088457  1
  H  H239  1  0.72052128  0.02141736  0.07193739  1
  C  C240  1  0.76568414  0.03427681  0.03697224  1
  O  O241  1  0.99248562  0.19973799  0.16802808  1
  C  C242  1  0.93029766  0.33725317  0.00323339  1
  H  H243  1  0.70334277  0.39321370  0.02152413  1
  H  H244  1  0.55571332  0.45847722  0.07179265  1
  C  C245  1  0.85830070  0.00547769  0.03313961  1
  C  C246  1  0.77125151  0.21052951  0.23607515  1
  C  C247  1  0.94586389  0.38169128  0.29723636  1
  C  C248  1  0.61639494  0.20780499  0.27824711  1
  C  C249  1  0.73183774  0.08219852  0.28908014  1
  O  O250  1  0.94422352  0.46296415  0.29261352  1
  C  C251  1  0.70743788  0.16383178  0.26938240  1
  Cu  Cu252  1  0.64652108  0.37124479  0.31216477  1
  O  O253  1  0.75731146  0.42480397  0.42560403  1
  O  O254  1  0.59742397  0.28997452  0.26577126  1
  C  C255  1  0.79269114  0.49083568  0.44589444  1
  Cu  Cu256  1  0.80580436  0.37336765  0.36876428  1
  O  O257  1  0.88013286  0.33342285  0.31533675  1
  H  H258  1  0.54216271  0.48317738  0.34250690  1
  H  H259  1  0.54243755  0.06439330  0.44913144  1
  O  O260  1  0.56298732  0.16219178  0.30388862  1
  H  H261  1  0.68009384  0.04881062  0.31432865  1
  O  O262  1  0.66907821  0.48153913  0.28762472  1
  C  C263  1  0.50349458  0.19364108  0.45899445  1
  C  C264  1  0.81854297  0.04198511  0.27420172  1
  H  H265  1  0.98358947  0.21204509  0.32265991  1
  H  H266  1  0.59996998  0.40494017  0.69540630  1
  O  O267  1  0.81704801  0.33159434  0.62049851  1
  H  H268  1  0.70594427  0.46715525  0.67130866  1
  H  H269  1  0.83435257  0.07630939  0.69654488  1
  C  C270  1  0.75989153  0.31681088  0.65362059  1
  Cu  Cu271  1  0.59175003  0.32083980  0.59477283  1
  O  O272  1  0.68029465  0.27877434  0.64425525  1
  C  C273  1  0.59685695  0.08727283  0.69881674  1
  H  H274  1  0.90445928  0.41360166  0.69814112  1
  C  C275  1  0.76632060  0.08836826  0.71406964  1
  H  H276  1  0.53675229  0.06373728  0.67368844  1
  C  C277  1  0.85342859  0.39643813  0.73051708  1
  O  O278  1  0.57488982  0.28321491  0.52565213  1
  C  C279  1  0.70249680  0.02786197  0.62739838  1
  C  C280  1  0.78067577  0.34450630  0.71258251  1
  C  C281  1  0.68810558  0.07130639  0.68407740  1
  H  H282  1  0.64693780  0.28756181  0.74058074  1
  C  C283  1  0.70635726  0.47016979  0.53589331  1
  H  H284  1  0.67306497  0.40855364  0.52165568  1
  O  O285  1  0.63771044  0.02701318  0.59708834  1
  N  N286  1  0.60978008  0.45670315  0.61622942  1
  C  C287  1  0.62644715  0.46108253  0.67034642  1
  O  O288  1  0.63566899  0.15343375  0.51173502  1
  H  H289  1  0.95574039  0.43151466  0.58662337  1
  O  O290  1  0.96387041  0.26269599  0.55157022  1
  C  C291  1  0.98576256  0.46801574  0.62078611  1
  C  C292  1  0.57746794  0.20705738  0.50356498  1
  H  H293  1  0.92240815  0.30794621  0.53624801  1
  C  C294  1  0.63325128  0.32154354  0.84243478  1
  O  O295  1  0.63494133  0.31997776  0.89262365  1
  H  H296  1  0.64884913  0.16158959  0.82885268  1
  H  H297  1  0.76762657  0.22885172  0.83774597  1
  H  H298  1  0.73811005  0.13253626  0.91452206  1
  C  C299  1  0.66396365  0.13277307  0.78764077  1
  C  C300  1  0.71301075  0.34807008  0.80585787  1
  C  C301  1  0.85345964  0.42362718  0.78586193  1
  C  C302  1  0.91602539  0.07864607  0.79963838  1
  H  H303  1  0.78875514  0.41148553  0.87073849  1
  C  C304  1  0.87488036  0.08122654  0.94489213  1
  C  C305  1  0.72254429  0.07957290  0.99420431  1
  C  C306  1  0.78731435  0.39181268  0.82650358  1
  H  H307  1  0.86943475  0.26355122  0.80327096  1
  H  H308  1  0.86585195  0.22732766  0.92360845  1
  H  H309  1  0.97449590  0.33753774  0.88914800  1
  C  C310  1  0.90678234  0.20801886  0.88730393  1
  H  H311  1  0.95592299  0.13256735  0.77588077  1
  C  C312  1  0.99544954  0.26889927  0.88123059  1
  N  N313  1  0.83614341  0.13467342  0.80077037  1
  Cu  Cu314  1  0.53725661  0.26290482  0.93579413  1
  C  C315  1  0.77750318  0.09853460  0.94845140  1
  N  N316  1  0.91730071  0.11824638  0.89990026  1
  C  C317  1  0.84167940  0.21326175  0.83248622  1
  C  C318  1  0.91310764  0.02899117  0.98888316  1
  O  O319  1  0.58954391  0.14412650  0.94347706  1
  H  H320  1  0.98764389  0.00437054  0.98726495  1
  C  C321  1  0.83645629  0.46900124  0.96520211  1
  O  O322  1  0.55643547  0.31259716  0.81839908  1
  C  C323  1  0.95533766  0.06042847  0.85969819  1
  C  C324  1  0.75838896  0.11915594  0.76876947  1
  O  O325  1  0.74902096  0.49022558  0.95868147  1
  C  C326  1  0.71136166  0.32563755  0.75063677  1
  N  N327  1  0.91175385  0.48310281  0.80682366  1
  C  C328  1  0.58984482  0.12016600  0.75224909  1
  H  H329  1  0.99302468  0.35589877  0.98196377  1
  C  C330  1  0.62084593  0.09848694  0.99043684  1
  H  H331  1  0.89952856  0.02164402  0.77551311  1
  C  C332  1  0.84858738  0.38747918  0.99576267  1
  C  C333  1  0.70498668  0.56854753  0.16122252  1
  Cu  Cu334  1  0.90116710  0.85625845  0.17256110  1
  O  O335  1  0.81320921  0.78355239  0.14614395  1
  H  H336  1  0.64081929  0.81511451  0.12650762  1
  C  C337  1  0.72192377  0.68516062  0.02308385  1
  H  H338  1  0.70629154  0.55480247  0.20631699  1
  C  C339  1  0.55505797  0.71982904  0.00926946  1
  C  C340  1  0.72645301  0.73293852  0.07026585  1
  O  O341  1  0.86909025  0.94817990  0.12367538  1
  C  C342  1  0.95304854  0.61442675  0.21327908  1
  O  O343  1  0.88735377  0.70696576  0.08352806  1
  C  C344  1  0.56180584  0.76709713  0.05832371  1
  C  C345  1  0.64356775  0.77244523  0.08837966  1
  H  H346  1  0.58040246  0.57558115  0.07546838  1
  C  C347  1  0.81223855  0.73917806  0.10195668  1
  C  C348  1  0.90226019  0.95144719  0.07554925  1
  H  H349  1  0.66220026  0.62939728  0.15800976  1
  C  C350  1  0.96646924  0.55167411  0.17160738  1
  O  O351  1  0.95801829  0.85264013  0.24207534  1
  H  H352  1  0.78220239  0.65112381  0.00909586  1
  H  H353  1  0.78151321  0.58218084  0.14822719  1
  H  H354  1  0.67016949  0.85853447  0.01617038  1
  Cu  Cu355  1  0.98753930  0.79370980  0.08581460  1
  O  O356  1  0.96992842  0.90718486  0.06240127  1
  C  C357  1  0.99339971  0.69914380  0.21459694  1
  C  C358  1  0.59765458  0.51135771  0.09066021  1
  H  H359  1  0.90225877  0.60709977  0.24425036  1
  C  C360  1  0.53629174  0.64093237  0.44385954  1
  O  O361  1  0.84792709  0.54032132  0.41977223  1
  C  C362  1  0.65060384  0.58155171  0.35695051  1
  H  H363  1  0.74660220  0.68873962  0.37699192  1
  C  C364  1  0.56441525  0.54192850  0.36714882  1
  C  C365  1  0.68168461  0.65210068  0.38800941  1
  O  O366  1  0.79261857  0.56335655  0.31289691  1
  N  N367  1  0.65807993  0.75389044  0.45146830  1
  O  O368  1  0.93584923  0.73948023  0.30264458  1
  C  C369  1  0.62392723  0.67979083  0.43084722  1
  C  C370  1  0.91879434  0.93806864  0.28990217  1
  H  H371  1  0.94308108  0.88465689  0.31985452  1
  H  H372  1  0.97470814  0.98585533  0.27552771  1
  N  N373  1  0.83308870  0.96100441  0.29167349  1
  C  C374  1  0.70521119  0.54505326  0.31354024  1
  C  C375  1  0.50901318  0.57203428  0.41011159  1
  Cu  Cu376  1  0.89013742  0.51562864  0.35335416  1
  H  H377  1  0.84655303  0.63653432  0.49420105  1
  C  C378  1  0.96310816  0.76069341  0.25994975  1
  C  C379  1  0.51969771  0.54493587  0.73351067  1
  O  O380  1  0.59253304  0.55023449  0.70132630  1
  C  C381  1  0.77342091  0.63001018  0.57213007  1
  C  C382  1  0.81758051  0.71608408  0.58807099  1
  H  H383  1  0.68737095  0.61075383  0.64301034  1
  O  O384  1  0.86382426  0.90705034  0.69943037  1
  C  C385  1  0.80042535  0.59774403  0.52067302  1
  C  C386  1  0.71065454  0.58583303  0.60437073  1
  O  O387  1  0.80485689  0.75612885  0.63410379  1
  C  C388  1  0.76111058  0.52014067  0.50121238  1
  Cu  Cu389  1  0.79796402  0.87788459  0.63621089  1
  O  O390  1  0.63820367  0.85206021  0.73810116  1
  O  O391  1  0.86360503  0.74916695  0.55192895  1
  H  H392  1  0.59832940  0.70204814  0.72385000  1
  H  H393  1  0.93378771  0.60339636  0.60253611  1
  C  C394  1  0.93414092  0.86924244  0.72243181  1
  C  C395  1  0.67377641  0.50321663  0.58562591  1
  O  O396  1  0.53354864  0.79788847  0.59409492  1
  H  H397  1  0.69435599  0.81846696  0.51242615  1
  H  H398  1  0.88065586  0.55520864  0.65876616  1
  C  C399  1  0.94600059  0.55730477  0.63634613  1
  H  H400  1  0.62934859  0.70928635  0.52429428  1
  O  O401  1  0.78175814  0.99056199  0.61655249  1
  H  H402  1  0.97463093  0.50151101  0.73283323  1
  O  O403  1  0.52450640  0.81345139  0.50672305  1
  C  C404  1  0.63352885  0.77175314  0.50197800  1
  N  N405  1  0.63559602  0.61460539  0.94983453  1
  C  C406  1  0.68408833  0.56668117  0.86750262  1
  H  H407  1  0.96663839  0.60364782  0.87857583  1
  C  C408  1  0.51290174  0.77747381  0.77988826  1
  C  C409  1  0.63838435  0.67608618  0.99178138  1
  O  O410  1  0.90090201  0.51491090  0.94792257  1
  C  C411  1  0.93079091  0.86100277  0.89685814  1
  H  H412  1  0.77650207  0.87212465  0.78876000  1
  C  C413  1  0.84600096  0.87004278  0.86769672  1
  C  C414  1  0.75479792  0.88397390  0.94107546  1
  C  C415  1  0.71822927  0.57853619  0.92820336  1
  N  N416  1  0.51394995  0.97891232  0.90432899  1
  H  H417  1  0.93048596  0.84718612  0.93992382  1
  C  C418  1  0.97063159  0.52144658  0.77566918  1
  H  H419  1  0.51309205  0.85159492  0.88791624  1
  H  H420  1  0.62768309  0.90514158  0.87716809  1
  H  H421  1  0.77687456  0.62762013  0.93901459  1
  C  C422  1  0.55428819  0.58387689  0.92425565  1
  H  H423  1  0.81708069  0.91901936  0.95515583  1
  C  C424  1  0.92702370  0.86713954  0.78321179  1
  N  N425  1  0.76183802  0.85569938  0.89253903  1
  C  C426  1  0.54937136  0.91439712  0.87520398  1
  C  C427  1  0.84242626  0.87253221  0.80977700  1
  C  C428  1  0.57796933  0.56101196  0.87438904  1
  H  H429  1  0.70895219  0.62258865  0.83846874  1
  H  H430  1  0.61131408  0.96205292  0.80013915  1
  H  H431  1  0.62116905  0.93838888  0.97060629  1
  H  H432  1  0.61258895  0.82601211  0.95371572  1
  O  O433  1  0.55203356  0.93887249  0.80284158  1
  C  C434  1  0.57307658  0.85363575  0.76676677  1
  H  H435  1  0.95478275  0.70335423  0.84120875  1
  C  C436  1  0.66158451  0.87347778  0.97071042  1
  H  H437  1  0.93944161  0.99772102  0.87915610  1
  H  H438  1  0.71213394  0.50656414  0.85012113  1
  H  H439  1  0.53173205  0.55968499  0.83878241  1
  C  C440  1  0.54047193  0.70034475  0.75288667  1
