# generated using pymatgen
data_Zn5H18(C2O)24
_symmetry_space_group_name_H-M   'P 1'
_cell_length_a   12.65902154
_cell_length_b   38.86900069
_cell_length_c   13.34838745
_cell_angle_alpha   90.00000000
_cell_angle_beta   90.00000000
_cell_angle_gamma   90.00000000
_symmetry_Int_Tables_number   1
_chemical_formula_structural   Zn5H18(C2O)24
_chemical_formula_sum   'Zn20 H72 C192 O96'
_cell_volume   6567.98750694
_cell_formula_units_Z   4
loop_
 _symmetry_equiv_pos_site_id
 _symmetry_equiv_pos_as_xyz
  1  'x, y, z'
loop_
 _atom_site_type_symbol
 _atom_site_label
 _atom_site_symmetry_multiplicity
 _atom_site_fract_x
 _atom_site_fract_y
 _atom_site_fract_z
 _atom_site_occupancy
  C  C0  1  0.27808046  0.12035963  0.08783635  1
  C  C1  1  0.44021917  0.23747123  0.10979944  1
  O  O2  1  0.15463054  0.19334947  0.25005793  1
  C  C3  1  0.23202457  0.00958237  0.37241965  1
  Zn  Zn4  1  0.32266346  0.18569512  0.22419184  1
  H  H5  1  0.38269726  0.02305815  0.23977332  1
  O  O6  1  0.21283338  0.03610188  0.33148288  1
  C  C7  1  0.21160508  0.13856251  0.00655526  1
  C  C8  1  0.42326030  0.17599257  0.41643864  1
  O  O9  1  0.26491749  0.08991376  0.10065294  1
  C  C10  1  0.09614997  0.21266179  0.19946474  1
  O  O11  1  0.43494404  0.15967009  0.33371049  1
  O  O12  1  0.36185168  0.23328826  0.16699504  1
  O  O13  1  0.34849313  0.14003733  0.12398658  1
  C  C14  1  0.00418400  0.19410589  0.13151584  1
  O  O15  1  0.35673800  0.19879320  0.41919973  1
  H  H16  1  0.21713273  0.23773657  0.04360853  1
  O  O17  1  0.10591803  0.24335051  0.19053324  1
  H  H18  1  0.29697829  0.18764758  0.01138206  1
  H  H19  1  0.01533637  0.14292276  0.20429019  1
  C  C20  1  0.44045287  0.00402726  0.27091846  1
  C  C21  1  0.15276934  0.04297194  0.75997264  1
  C  C22  1  0.33572029  0.13780355  0.77304421  1
  H  H23  1  0.23485126  0.00333427  0.66296268  1
  C  C24  1  0.29920744  0.00416805  0.95861062  1
  C  C25  1  0.28196053  0.07975991  0.85178958  1
  C  C26  1  0.21816940  0.04918255  0.84370334  1
  H  H27  1  0.04144004  0.03270518  0.96530730  1
  C  C28  1  0.27081290  0.10157084  0.77278276  1
  H  H29  1  0.20648919  0.11785629  0.62887728  1
  C  C30  1  0.07685847  0.16639168  0.86800859  1
  O  O31  1  0.08500371  0.08232110  0.52665661  1
  C  C32  1  0.49138854  0.16597748  0.50446826  1
  C  C33  1  0.16163332  0.18669745  0.90728930  1
  C  C34  1  0.13027988  0.11830148  0.96707337  1
  C  C35  1  0.14378902  0.06784511  0.68508420  1
  C  C36  1  0.18952456  0.22349108  0.88411439  1
  C  C37  1  0.20749432  0.09837918  0.69004565  1
  H  H38  1  0.32945096  0.08744080  0.91826225  1
  C  C39  1  0.08633520  0.06132340  0.59034701  1
  C  C40  1  0.05765339  0.13305029  0.90161049  1
  H  H41  1  0.11773886  0.01724131  0.74912482  1
  O  O42  1  0.32224473  0.15684859  0.70228044  1
  O  O43  1  0.39494378  0.14419743  0.84075268  1
  Zn  Zn44  1  0.35598481  0.22590147  0.83179845  1
  C  C45  1  0.21268456  0.02454439  0.93260842  1
  O  O46  1  0.02985734  0.02903864  0.57384721  1
  O  O47  1  0.05054479  0.23390024  0.76741085  1
  H  H48  1  0.02268504  0.17887649  0.81156111  1
  H  H49  1  0.37333033  0.00667852  0.92122858  1
  H  H50  1  0.46042933  0.21357270  0.59739324  1
  H  H51  1  0.12267602  0.09118889  0.98693533  1
  C  C52  1  0.12683056  0.24235424  0.81219752  1
  C  C53  1  0.24223479  0.24288607  0.96146651  1
  C  C54  1  0.11503831  0.02042366  0.98253305  1
  C  C55  1  0.23157081  0.17226872  0.97884410  1
  C  C56  1  0.45297294  0.38260094  0.16227526  1
  O  O57  1  0.38752519  0.35897829  0.17298768  1
  C  C58  1  0.43747387  0.26325592  0.01836368  1
  O  O59  1  0.11803956  0.40155473  0.28633435  1
  O  O60  1  0.20054007  0.43982525  0.19950199  1
  C  C61  1  0.11249743  0.42457316  0.22494182  1
  Zn  Zn62  1  0.28132478  0.42945979  0.06738769  1
  Zn  Zn63  1  0.37278417  0.31290874  0.05394556  1
  O  O64  1  0.43384692  0.41032012  0.12204299  1
  H  H65  1  0.05444983  0.47954376  0.08214683  1
  O  O66  1  0.20012457  0.48068357  0.00897493  1
  O  O67  1  0.08502898  0.36208318  0.01359758  1
  C  C68  1  0.01351129  0.43462222  0.16943858  1
  C  C69  1  0.48803206  0.33485100  0.57151830  1
  C  C70  1  0.07127864  0.43649170  0.85818552  1
  O  O71  1  0.35640838  0.47149834  0.95931110  1
  O  O72  1  0.14169897  0.49108077  0.73376430  1
  H  H73  1  0.15380755  0.43835257  0.85867855  1
  H  H74  1  0.14853335  0.27066405  0.79186620  1
  C  C75  1  0.32682391  0.29905943  0.89886035  1
  O  O76  1  0.31981596  0.31757892  0.83371644  1
  O  O77  1  0.21134132  0.39678918  0.97025933  1
  Zn  Zn78  1  0.46036282  0.43410317  0.63273308  1
  C  C79  1  0.05106090  0.48991181  0.75041786  1
  C  C80  1  0.03119214  0.40982532  0.91695156  1
  C  C81  1  0.11222001  0.38835299  0.97509296  1
  C  C82  1  0.27822480  0.49012051  0.96082952  1
  C  C83  1  0.33630154  0.26735967  0.95912886  1
  O  O84  1  0.42033079  0.32726457  0.51614706  1
  C  C85  1  0.00192129  0.45702408  0.80360973  1
  O  O86  1  0.16923985  0.71094028  0.34598933  1
  C  C87  1  0.32109630  0.71379708  0.20672564  1
  C  C88  1  0.13354427  0.70163142  0.26520423  1
  C  C89  1  0.39535868  0.71731430  0.12601370  1
  O  O90  1  0.03578576  0.69630933  0.24775657  1
  C  C91  1  0.21872159  0.70314349  0.18584701  1
  H  H92  1  0.34174961  0.72139935  0.28609185  1
  H  H93  1  0.45069856  0.70343378  0.43428350  1
  C  C94  1  0.19128778  0.69503849  0.08693313  1
  C  C95  1  0.49625795  0.73617753  0.15612671  1
  H  H96  1  0.11152235  0.68456636  0.07863298  1
  C  C97  1  0.36825522  0.70705613  0.02777903  1
  C  C98  1  0.26478884  0.69546695  0.01083990  1
  H  H99  1  0.12113023  0.53691077  0.93977093  1
  O  O100  1  0.28746643  0.69199465  0.82625754  1
  H  H101  1  0.43347510  0.51650509  0.86906543  1
  C  C102  1  0.27716546  0.58361584  0.77919007  1
  C  C103  1  0.27957085  0.52369144  0.90556252  1
  C  C104  1  0.23029608  0.68582513  0.90329041  1
  C  C105  1  0.08931630  0.59147775  0.80672545  1
  Zn  Zn106  1  0.31841007  0.74363932  0.77296290  1
  H  H107  1  0.43016411  0.71042799  0.97044233  1
  C  C108  1  0.19162166  0.57092587  0.82860057  1
  O  O109  1  0.14378721  0.67380593  0.89910525  1
  O  O110  1  0.49651160  0.72349765  0.81827435  1
  H  H111  1  0.27089136  0.60764841  0.73878606  1
  O  O112  1  0.09655581  0.61398167  0.74517497  1
  C  C113  1  0.18842906  0.54242148  0.89327273  1
  C  C114  1  0.37250758  0.56487623  0.79421090  1
  C  C115  1  0.37158612  0.53605206  0.85946553  1
  O  O116  1  0.00734618  0.58706696  0.86080746  1
  C  C117  1  0.48673823  0.56539131  0.75977396  1
  H  H118  1  0.03206435  0.73044310  0.85166150  1
  Zn  Zn119  1  0.46916119  0.64250983  0.80960251  1
  O  O120  1  0.49195507  0.50474455  0.69484171  1
  C  C121  1  0.08855595  0.74579315  0.65733091  1
  O  O122  1  0.39222497  0.93881742  0.12275191  1
  C  C123  1  0.38592179  0.95741981  0.04867481  1
  H  H124  1  0.43699446  0.93128981  0.41797505  1
  C  C125  1  0.40584992  0.97937784  0.33948356  1
  C  C126  1  0.47196983  0.77254519  0.16328753  1
  H  H127  1  0.20623748  0.96416022  0.16845940  1
  C  C128  1  0.05655859  0.79568786  0.03020477  1
  C  C129  1  0.29523334  0.98111109  0.03811107  1
  O  O130  1  0.27344859  0.88199906  0.04399046  1
  C  C131  1  0.29887720  0.97925763  0.38499809  1
  H  H132  1  0.40207013  0.78374758  0.12728184  1
  C  C133  1  0.26656274  0.95098697  0.46513194  1
  C  C134  1  0.20763613  0.98035424  0.10336997  1
  Zn  Zn135  1  0.47275411  0.88936325  0.09475575  1
  H  H136  1  0.10378694  0.78782904  0.09655568  1
  O  O137  1  0.01974806  0.97377999  0.19976603  1
  H  H138  1  0.29216869  0.92357690  0.44675351  1
  O  O139  1  0.47336991  0.84597358  0.16929059  1
  O  O140  1  0.24953381  0.77954441  0.02682705  1
  Zn  Zn141  1  0.12936224  0.97698959  0.46775678  1
  C  C142  1  0.02410028  0.99540789  0.13395143  1
  C  C143  1  0.47119933  0.95149132  0.37116466  1
  C  C144  1  0.12095937  0.99840217  0.06853441  1
  O  O145  1  0.34789445  0.75340974  0.49672208  1
  O  O146  1  0.39639767  0.88420049  0.93310477  1
  Zn  Zn147  1  0.45976560  0.92566138  0.84007383  1
  C  C148  1  0.33121700  0.94276237  0.64219688  1
  C  C149  1  0.10010812  0.88413162  0.90673745  1
  C  C150  1  0.04412643  0.80661703  0.84838000  1
  C  C151  1  0.29701329  0.88118624  0.95665016  1
  H  H152  1  0.08286205  0.80852627  0.77480331  1
  O  O153  1  0.12025270  0.86206233  0.52873503  1
  C  C154  1  0.18836175  0.98655590  0.61296776  1
  O  O155  1  0.24010261  0.82967074  0.59573425  1
  O  O156  1  0.34445977  0.94844954  0.73373614  1
  O  O157  1  0.38340934  0.92060844  0.60089975  1
  C  C158  1  0.41520787  0.75291667  0.56601962  1
  C  C159  1  0.24973466  0.95831501  0.57148703  1
  C  C160  1  0.22713144  0.86559948  0.78174593  1
  C  C161  1  0.20426174  0.87630147  0.87857333  1
  H  H162  1  0.30814075  0.85843922  0.76313627  1
  C  C163  1  0.09795078  0.79755621  0.93318404  1
  O  O164  1  0.15787155  0.75186294  0.72250544  1
  C  C165  1  0.16395712  0.85174161  0.60169301  1
  C  C166  1  0.21675461  0.78728738  0.94196172  1
  O  O167  1  0.27810061  0.78878130  0.86859629  1
  C  C168  1  0.14690947  0.86661022  0.71051382  1
  O  O169  1  0.39892124  0.76772834  0.64501011  1
  C  C170  1  0.04834231  0.88012526  0.73478766  1
  C  C171  1  0.01526509  0.88820555  0.83230153  1
  O  O172  1  0.00684598  0.93293114  0.60159759  1
  H  H173  1  0.07755121  0.88803364  0.98845391  1
  Zn  Zn174  1  0.22602629  0.78480891  0.52284176  1
  O  O175  1  0.45349673  0.95856097  0.97769800  1
  O  O176  1  0.10414656  0.75249865  0.56504450  1
  C  C177  1  0.06739533  0.99691282  0.60015287  1
  O  O178  1  0.54454706  0.04333455  0.11337776  1
  H  H179  1  0.69036853  0.08577943  0.42872629  1
  C  C180  1  0.59631774  0.02022622  0.15001416  1
  C  C181  1  0.86408467  0.10842237  0.11939526  1
  O  O182  1  0.69320363  0.01539290  0.12689661  1
  O  O183  1  0.85294865  0.00026672  0.42851738  1
  O  O184  1  0.78219647  0.04062539  0.33727053  1
  Zn  Zn185  1  0.82254686  0.04206647  0.19221723  1
  O  O186  1  0.80445221  0.08983872  0.07228755  1
  C  C187  1  0.83616660  0.16615285  0.02134077  1
  H  H188  1  0.55182094  0.12113911  0.43093838  1
  O  O189  1  0.58275344  0.18764033  0.09869346  1
  C  C190  1  0.89016411  0.14692686  0.09405628  1
  C  C191  1  0.79778195  0.02584348  0.42228291  1
  O  O192  1  0.91033628  0.09479565  0.18962493  1
  C  C193  1  0.87140887  0.20063699  0.00639379  1
  C  C194  1  0.97773478  0.15946384  0.14521731  1
  C  C195  1  0.95530972  0.21476891  0.06236862  1
  C  C196  1  0.54617416  0.21540845  0.09780248  1
  H  H197  1  0.97611137  0.24157258  0.05063876  1
  O  O198  1  0.94238430  0.01372563  0.11117058  1
  C  C199  1  0.55518020  0.13691863  0.49502009  1
  C  C200  1  0.82574967  0.22872834  0.93554404  1
  O  O201  1  0.91963097  0.11697067  0.79303944  1
  O  O202  1  0.51025584  0.23065493  0.76469114  1
  C  C203  1  0.77030550  0.03241528  0.80016520  1
  C  C204  1  0.57096768  0.20387394  0.75750735  1
  C  C205  1  0.78270437  0.02810185  0.60709555  1
  C  C206  1  0.83306291  0.23005641  0.82785811  1
  O  O207  1  0.72750047  0.04792436  0.86817075  1
  C  C208  1  0.62312035  0.12809645  0.57729042  1
  C  C209  1  0.97794388  0.10709184  0.85507528  1
  C  C210  1  0.70477139  0.07455974  0.50510400  1
  C  C211  1  0.68185389  0.09537833  0.58995461  1
  H  H212  1  0.67943832  0.14363656  0.72159169  1
  C  C213  1  0.70434263  0.07808202  0.68141584  1
  C  C214  1  0.74986401  0.04617515  0.69234914  1
  H  H215  1  0.68453817  0.08947303  0.75596915  1
  O  O216  1  0.82276130  0.23248395  0.61498417  1
  H  H217  1  0.87149040  0.21077462  0.78263474  1
  H  H218  1  0.88965123  0.07239666  0.89459488  1
  O  O219  1  0.63011875  0.19676493  0.82463809  1
  H  H220  1  0.82393801  0.00339990  0.61380526  1
  C  C221  1  0.62376166  0.15010359  0.66214644  1
  C  C222  1  0.56591702  0.17954011  0.66736237  1
  H  H223  1  0.76473216  0.15540803  0.98877897  1
  O  O224  1  0.96597954  0.07686773  0.90711397  1
  O  O225  1  0.83167954  0.00847896  0.81148075  1
  C  C226  1  0.50190385  0.18794570  0.58539251  1
  C  C227  1  0.75875675  0.04374243  0.51677850  1
  C  C228  1  0.58030202  0.34406582  0.26506083  1
  H  H229  1  0.84736907  0.35282932  0.28851727  1
  C  C230  1  0.74102780  0.39270940  0.21726809  1
  C  C231  1  0.63579778  0.39915888  0.19211994  1
  C  C232  1  0.72299358  0.30196140  0.32293430  1
  O  O233  1  0.81430103  0.29886670  0.34976132  1
  C  C234  1  0.76768081  0.36044997  0.26512344  1
  O  O235  1  0.65601612  0.27764942  0.32258406  1
  H  H236  1  0.62019139  0.42340748  0.15582384  1
  C  C237  1  0.68703297  0.33853254  0.28789663  1
  C  C238  1  0.82279961  0.41764506  0.17144027  1
  H  H239  1  0.72656662  0.44926939  0.07444453  1
  H  H240  1  0.94358713  0.39342287  0.25239654  1
  C  C241  1  0.92801978  0.41332993  0.20053461  1
  O  O242  1  0.65943041  0.29964155  0.08699350  1
  C  C243  1  0.99432890  0.46123919  0.10286691  1
  C  C244  1  0.80627063  0.44564368  0.10660279  1
  H  H245  1  0.52073549  0.32457064  0.28095309  1
  O  O246  1  0.69101723  0.43437155  0.42974019  1
  C  C247  1  0.56225506  0.37355160  0.20806789  1
  C  C248  1  0.89039175  0.46540054  0.07616073  1
  Zn  Zn249  1  0.56967446  0.25387078  0.20284108  1
  H  H250  1  0.75579124  0.44647634  0.40418879  1
  H  H251  1  0.76763550  0.25451958  0.06897704  1
  H  H252  1  0.55933125  0.38789450  0.49561266  1
  C  C253  1  0.84892479  0.49313388  0.00326488  1
  H  H254  1  0.51366986  0.26736056  0.98241388  1
  C  C255  1  0.70907855  0.27738170  0.93349072  1
  C  C256  1  0.71402544  0.27916337  0.82887039  1
  H  H257  1  0.66017498  0.46502335  0.71780646  1
  O  O258  1  0.75504835  0.45804098  0.57273281  1
  C  C259  1  0.92635903  0.40299425  0.91780064  1
  O  O260  1  0.76980812  0.28587702  0.62473421  1
  C  C261  1  0.89223174  0.45147541  0.79964497  1
  C  C262  1  0.62605695  0.43743517  0.70996299  1
  H  H263  1  0.67149488  0.30022252  0.78856812  1
  C  C264  1  0.65645423  0.41632832  0.79672867  1
  C  C265  1  0.77184861  0.25496664  0.77741413  1
  Zn  Zn266  1  0.63063528  0.31109416  0.61350230  1
  Zn  Zn267  1  0.65332516  0.37256943  0.89586296  1
  C  C268  1  0.85740600  0.42424332  0.86005898  1
  H  H269  1  0.89691434  0.38063620  0.95832920  1
  C  C270  1  0.74535389  0.41313819  0.85073117  1
  C  C271  1  0.61652464  0.42514155  0.60415548  1
  H  H272  1  0.84225781  0.46845671  0.75333808  1
  C  C273  1  0.54594722  0.36115399  0.64680378  1
  C  C274  1  0.69673623  0.43908714  0.53373716  1
  O  O275  1  0.60243690  0.32864866  0.95648528  1
  C  C276  1  0.55488689  0.39512078  0.57588532  1
  O  O277  1  0.75468902  0.49567016  0.98789829  1
  O  O278  1  0.53968674  0.36105204  0.73662933  1
  C  C279  1  0.78523414  0.25572700  0.66130758  1
  C  C280  1  0.65326234  0.30336651  0.99516761  1
  C  C281  1  0.76471896  0.25253465  0.98874881  1
  O  O282  1  0.53186574  0.66171877  0.33239485  1
  Zn  Zn283  1  0.94453164  0.72439800  0.14747136  1
  O  O284  1  0.81086450  0.70752192  0.24216219  1
  C  C285  1  0.59421827  0.72084891  0.18100613  1
  C  C286  1  0.75475194  0.72753428  0.29273527  1
  H  H287  1  0.61231209  0.69312476  0.16061522  1
  O  O288  1  0.78602985  0.73687854  0.37419005  1
  C  C289  1  0.64821396  0.74252718  0.24801102  1
  C  C290  1  0.61012041  0.66476910  0.38234754  1
  O  O291  1  0.69496389  0.64218954  0.35774320  1
  C  C292  1  0.61260638  0.68966520  0.46684104  1
  H  H293  1  0.75290036  0.65737077  0.37862666  1
  C  C294  1  0.52084310  0.70863889  0.48493934  1
  O  O295  1  0.77026616  0.55811353  0.74653468  1
  C  C296  1  0.53369043  0.69546984  0.80104990  1
  C  C297  1  0.74699541  0.58714462  0.70357858  1
  C  C298  1  0.85745512  0.71729834  0.95221109  1
  H  H299  1  0.75754498  0.65139628  0.70613474  1
  C  C300  1  0.61440193  0.67302784  0.76426033  1
  C  C301  1  0.89618537  0.73241886  0.63157840  1
  C  C302  1  0.70280164  0.69223288  0.53130498  1
  H  H303  1  0.90284220  0.73519566  0.54605493  1
  C  C304  1  0.64067737  0.61037151  0.73428862  1
  C  C305  1  0.51881155  0.73404644  0.55907597  1
  O  O306  1  0.80492543  0.59697698  0.64015438  1
  C  C307  1  0.67893811  0.64570879  0.73229914  1
  O  O308  1  0.98473420  0.51283717  0.72430930  1
  C  C309  1  0.69869751  0.71729822  0.60366683  1
  H  H310  1  0.60458490  0.53320382  0.66405458  1
  H  H311  1  0.69673309  0.71864017  0.80997665  1
  Zn  Zn312  1  0.89787767  0.54590277  0.82728719  1
  C  C313  1  0.77381387  0.72241524  0.77542574  1
  C  C314  1  0.86354368  0.72372432  0.83509433  1
  H  H315  1  0.77366300  0.67567534  0.51855376  1
  C  C316  1  0.79566213  0.72462989  0.67086542  1
  C  C317  1  0.60856431  0.73815883  0.61660678  1
  C  C318  1  0.96603475  0.72912766  0.79896165  1
  O  O319  1  0.91796372  0.51233406  0.96067971  1
  C  C320  1  0.54437256  0.59597010  0.76266255  1
  C  C321  1  0.52275519  0.53379982  0.70784196  1
  C  C322  1  0.98144491  0.73682132  0.69693765  1
  O  O323  1  0.78091990  0.70651156  0.99711860  1
  O  O324  1  0.93845487  0.72678478  0.99824169  1
  O  O325  1  0.60288187  0.84554265  0.27546948  1
  Zn  Zn326  1  0.76804526  0.85627017  0.27080156  1
  H  H327  1  0.69051733  0.96999208  0.22552453  1
  C  C328  1  0.94924854  0.80495682  0.03628373  1
  C  C329  1  0.54326625  0.79140058  0.21673461  1
  C  C330  1  0.89782462  0.80078425  0.14199304  1
  O  O331  1  0.81626113  0.81641122  0.16156087  1
  O  O332  1  0.63359323  0.91059921  0.08770935  1
  C  C333  1  0.72838969  0.90334820  0.08097408  1
  C  C334  1  0.63008368  0.77678745  0.27234257  1
  O  O335  1  0.79181183  0.82864234  0.41045595  1
  O  O336  1  0.72443046  0.91162107  0.33823796  1
  C  C337  1  0.54355642  0.99743540  0.23092666  1
  C  C338  1  0.63596939  0.91769806  0.36797258  1
  O  O339  1  0.78746250  0.89207887  0.14528358  1
  C  C340  1  0.57417523  0.94761371  0.33363181  1
  C  C341  1  0.61068802  0.97169943  0.26105407  1
  H  H342  1  0.68315131  0.79029286  0.32743466  1
  O  O343  1  0.59308741  0.89582538  0.43090940  1
  C  C344  1  0.85324679  0.82197622  0.48425790  1
  O  O345  1  0.94185029  0.78023943  0.19912677  1
  O  O346  1  0.93676186  0.80870856  0.46935057  1
  C  C347  1  0.54141196  0.82941531  0.22023307  1
  H  H348  1  0.92517044  0.87805957  0.00823428  1
  C  C349  1  0.59143746  0.86527637  0.74375570  1
  C  C350  1  0.66657922  0.94394116  0.74015012  1
  C  C351  1  0.71990905  0.84450433  0.61290886  1
  O  O352  1  0.67364747  0.94003314  0.64668203  1
  H  H353  1  0.86483645  0.91297713  0.69838127  1
  H  H354  1  0.74621485  0.84552117  0.87359981  1
  C  C355  1  0.69839410  0.85029528  0.71655633  1
  Zn  Zn356  1  0.95396858  0.98433327  0.72402930  1
  H  H357  1  0.96829320  0.81054508  0.63815969  1
  C  C358  1  0.84140788  0.91223524  0.77668426  1
  C  C359  1  0.89527614  0.82368828  0.66574368  1
  C  C360  1  0.74727150  0.92554330  0.80992347  1
  C  C361  1  0.90455094  0.89802348  0.85416453  1
  C  C362  1  0.76933741  0.84116871  0.79082197  1
  C  C363  1  0.77579054  0.90700262  0.97515528  1
  O  O364  1  0.59106766  0.95852007  0.78199170  1
  C  C365  1  0.87065652  0.82770725  0.77028885  1
  H  H366  1  0.80308984  0.82180013  0.96343571  1
  O  O367  1  0.57232186  0.88015070  0.82237642  1
  C  C368  1  0.87323972  0.89333458  0.95501056  1
  C  C369  1  0.71072509  0.92457800  0.90773639  1
  Zn  Zn370  1  0.54659304  0.91453769  0.57002543  1
  C  C371  1  0.93798276  0.81711585  0.86042000  1
  H  H372  1  0.63415224  0.93789679  0.92864508  1
  O  O373  1  0.52934205  0.86903677  0.66928997  1
  C  C374  1  0.82313444  0.83232906  0.59308941  1
  C  C375  1  0.88766771  0.81536706  0.95513792  1
  H  H376  1  0.66568507  0.85223939  0.55274185  1
  H  H377  1  0.61071289  0.75396007  0.68189914  1
  H  H378  1  0.99209244  0.87870178  0.67144243  1
  C  C379  1  0.99910443  0.96280948  0.58934463  1
