# generated using pymatgen
data_ZnH6(C3O)4
_symmetry_space_group_name_H-M   'P 1'
_cell_length_a   14.64431917
_cell_length_b   16.70239475
_cell_length_c   16.77302804
_cell_angle_alpha   90.00000000
_cell_angle_beta   90.00000000
_cell_angle_gamma   90.00000000
_symmetry_Int_Tables_number   1
_chemical_formula_structural   ZnH6(C3O)4
_chemical_formula_sum   'Zn16 H96 C192 O64'
_cell_volume   4102.60214015
_cell_formula_units_Z   16
loop_
 _symmetry_equiv_pos_site_id
 _symmetry_equiv_pos_as_xyz
  1  'x, y, z'
loop_
 _atom_site_type_symbol
 _atom_site_label
 _atom_site_symmetry_multiplicity
 _atom_site_fract_x
 _atom_site_fract_y
 _atom_site_fract_z
 _atom_site_occupancy
  C  C0  1  0.41521448  0.16384994  0.23232563  1
  H  H1  1  0.16703580  0.22822813  0.19480796  1
  C  C2  1  0.12787962  0.00091876  0.24764819  1
  C  C3  1  0.08301730  0.03525188  0.17640323  1
  C  C4  1  0.18734247  0.04914987  0.29505422  1
  C  C5  1  0.20306067  0.12706465  0.26749869  1
  O  O6  1  0.28244120  0.07144935  0.40836704  1
  H  H7  1  0.48200183  0.05291781  0.27445763  1
  H  H8  1  0.25188904  0.16146077  0.30806602  1
  C  C9  1  0.15513284  0.16634341  0.20591142  1
  H  H10  1  0.38470065  0.13444078  0.17876529  1
  C  C11  1  0.23335725  0.02466266  0.37101396  1
  H  H12  1  0.04253198  0.11772331  0.38494718  1
  C  C13  1  0.09624530  0.11996030  0.15778690  1
  C  C14  1  0.04517809  0.15929048  0.09246344  1
  C  C15  1  0.46756299  0.11775346  0.28441931  1
  O  O16  1  0.30309161  0.19942247  0.10243942  1
  Zn  Zn17  1  0.38645769  0.06058004  0.49634819  1
  O  O18  1  0.05137295  0.23366941  0.08264422  1
  O  O19  1  0.49375903  0.12270016  0.04171001  1
  C  C20  1  0.40476025  0.24713458  0.24807519  1
  H  H21  1  0.46801695  0.19538278  0.74932268  1
  C  C22  1  0.08499440  0.22460785  0.67676466  1
  H  H23  1  0.36117944  0.09673213  0.67110934  1
  C  C24  1  0.39486070  0.07984126  0.72672020  1
  H  H25  1  0.23707781  0.07764674  0.79490018  1
  C  C26  1  0.18885983  0.11980140  0.76201108  1
  O  O27  1  0.27047537  0.14408908  0.91079028  1
  C  C28  1  0.17768319  0.19489055  0.79807082  1
  C  C29  1  0.22354713  0.19828030  0.87598698  1
  C  C30  1  0.48402820  0.02498739  0.86926425  1
  C  C31  1  0.15353532  0.09275174  0.69088519  1
  H  H32  1  0.16071899  0.02951024  0.66582744  1
  C  C33  1  0.04877363  0.10013741  0.58467862  1
  C  C34  1  0.45368890  0.13164450  0.76724690  1
  C  C35  1  0.09559385  0.14433221  0.64931034  1
  H  H36  1  0.05293482  0.13257629  0.88222736  1
  O  O37  1  0.30206632  0.03564279  0.58769853  1
  C  C38  1  0.00450846  0.08977801  0.85139142  1
  C  C39  1  0.49754544  0.10219144  0.83928491  1
  O  O40  1  0.06988717  0.02811285  0.57183872  1
  Zn  Zn41  1  0.37187827  0.17130553  0.99448358  1
  C  C42  1  0.29209753  0.26778548  0.13256972  1
  C  C43  1  0.32883503  0.37604018  0.22785845  1
  C  C44  1  0.05700505  0.37585176  0.21761622  1
  C  C45  1  0.37565602  0.41149525  0.28950935  1
  O  O46  1  0.01070326  0.38102484  0.46067409  1
  Zn  Zn47  1  0.14051012  0.30871209  0.00926119  1
  C  C48  1  0.34475670  0.29687892  0.20196674  1
  H  H49  1  0.27992151  0.41238103  0.19195989  1
  O  O50  1  0.23725705  0.31871323  0.10331901  1
  H  H51  1  0.15735252  0.38955231  0.31706972  1
  C  C52  1  0.47593519  0.40840705  0.40763441  1
  H  H53  1  0.49321436  0.37748836  0.11682228  1
  C  C54  1  0.12013478  0.41926961  0.26427411  1
  C  C55  1  0.43226817  0.36415765  0.33899881  1
  H  H56  1  0.35480010  0.47169406  0.31335469  1
  C  C57  1  0.44444495  0.28156731  0.32170007  1
  C  C58  1  0.01343570  0.40721728  0.15021574  1
  H  H59  1  0.04408964  0.31115057  0.23361465  1
  O  O60  1  0.21831311  0.45811290  0.39887416  1
  O  O61  1  0.46561296  0.48123195  0.41912566  1
  C  C62  1  0.02858253  0.48846851  0.13049338  1
  H  H63  1  0.02881944  0.25629050  0.42072173  1
  Zn  Zn64  1  0.12901173  0.43396388  0.49836745  1
  C  C65  1  0.43382272  0.45175715  0.81834730  1
  C  C66  1  0.35941466  0.32429730  0.79730663  1
  O  O67  1  0.23655066  0.41417313  0.59059227  1
  O  O68  1  0.21616792  0.26732135  0.90982477  1
  C  C69  1  0.42170366  0.36976459  0.84143006  1
  C  C70  1  0.02838634  0.27955429  0.63244748  1
  C  C71  1  0.32823699  0.43501735  0.70064219  1
  C  C72  1  0.11306052  0.33528680  0.77154813  1
  H  H73  1  0.04363631  0.45254029  0.74571227  1
  C  C74  1  0.29115284  0.45937529  0.62390437  1
  H  H75  1  0.27146878  0.31971631  0.69326264  1
  C  C76  1  0.31576206  0.35715150  0.73244200  1
  H  H77  1  0.35009490  0.26170963  0.81609019  1
  C  C78  1  0.01957853  0.35865325  0.65399614  1
  C  C79  1  0.05992072  0.38867742  0.72706318  1
  H  H80  1  0.14497248  0.35353327  0.82876179  1
  O  O81  1  0.45700457  0.25589029  0.91856710  1
  C  C82  1  0.47630729  0.32721225  0.90413562  1
  O  O83  1  0.02926877  0.36384630  0.95126016  1
  H  H84  1  0.46142384  0.37189039  0.62329786  1
  C  C85  1  0.38708803  0.48597719  0.74600664  1
  H  H86  1  0.02101575  0.47682660  0.92216407  1
  C  C87  1  0.12660989  0.25195541  0.75053200  1
  O  O88  1  0.29438159  0.72215756  0.08758031  1
  H  H89  1  0.46857789  0.56316847  0.24414834  1
  H  H90  1  0.24210053  0.67490958  0.31365845  1
  Zn  Zn91  1  0.37772972  0.56214210  0.49631038  1
  C  C92  1  0.20306773  0.63433728  0.27638896  1
  C  C93  1  0.13212162  0.50127371  0.24823820  1
  C  C94  1  0.18733927  0.55444950  0.29959704  1
  C  C95  1  0.16315059  0.66388894  0.20495031  1
  C  C96  1  0.09719548  0.62060574  0.15848503  1
  C  C97  1  0.44205874  0.61899740  0.26874866  1
  C  C98  1  0.08411828  0.53792900  0.18148161  1
  C  C99  1  0.04062670  0.65818540  0.09912879  1
  O  O100  1  0.28170079  0.57729203  0.41131436  1
  C  C101  1  0.39319162  0.67182968  0.21815189  1
  H  H102  1  0.36088046  0.64911908  0.16107182  1
  H  H103  1  0.03092933  0.61968752  0.39615516  1
  C  C104  1  0.23017939  0.52991935  0.37626353  1
  H  H105  1  0.16880387  0.73020916  0.18615343  1
  O  O106  1  0.48751027  0.63789749  0.05224913  1
  O  O107  1  0.05684324  0.73472682  0.08764450  1
  C  C108  1  0.46587156  0.72069228  0.37582335  1
  C  C109  1  0.47713504  0.64337068  0.34400960  1
  H  H110  1  0.49970576  0.73833514  0.42940148  1
  C  C111  1  0.12939234  0.74644949  0.75508765  1
  C  C112  1  0.07813984  0.71401878  0.68497642  1
  C  C113  1  0.49547907  0.58797012  0.84569131  1
  C  C114  1  0.19535629  0.60850987  0.77246266  1
  O  O115  1  0.27121853  0.65451781  0.91158666  1
  C  C116  1  0.18703775  0.69038947  0.79551237  1
  O  O117  1  0.30233998  0.53121170  0.60061852  1
  C  C118  1  0.40737092  0.56836127  0.72843073  1
  H  H119  1  0.23672461  0.56540832  0.80704830  1
  O  O120  1  0.06446226  0.52269966  0.57716352  1
  C  C121  1  0.09632187  0.63434751  0.65620039  1
  C  C122  1  0.23451696  0.71047194  0.87310979  1
  C  C123  1  0.14929619  0.58431723  0.70467439  1
  C  C124  1  0.05308060  0.59684035  0.58642178  1
  H  H125  1  0.37908273  0.59778257  0.67456311  1
  H  H126  1  0.16051867  0.52357985  0.67907093  1
  H  H127  1  0.46625997  0.68427670  0.75847601  1
  C  C128  1  0.45141476  0.62240685  0.77888418  1
  H  H129  1  0.05622232  0.62740486  0.88421369  1
  Zn  Zn130  1  0.37876745  0.69827538  0.98484402  1
  C  C131  1  0.48265928  0.50647919  0.86542800  1
  C  C132  1  0.00382909  0.58798402  0.85026619  1
  O  O133  1  0.00316018  0.63434384  0.53700540  1
  O  O134  1  0.48331879  0.63780582  0.54522510  1
  C  C135  1  0.28024803  0.78783353  0.12428331  1
  C  C136  1  0.41754807  0.77303834  0.32656938  1
  C  C137  1  0.00605044  0.90400650  0.15188057  1
  C  C138  1  0.46669264  0.89412249  0.41240809  1
  C  C139  1  0.31604774  0.88374456  0.23171525  1
  O  O140  1  0.23092335  0.84103045  0.09370320  1
  H  H141  1  0.15489895  0.88825758  0.31335273  1
  C  C142  1  0.36614930  0.90905900  0.29575844  1
  H  H143  1  0.35846768  0.97375652  0.31418788  1
  C  C144  1  0.32471349  0.80436388  0.20182255  1
  H  H145  1  0.27184867  0.92959881  0.20135015  1
  C  C146  1  0.37670823  0.75006699  0.24691133  1
  C  C147  1  0.05540095  0.86981116  0.21706376  1
  Zn  Zn148  1  0.13162821  0.80326091  0.00200320  1
  C  C149  1  0.41541783  0.85732617  0.34516841  1
  C  C150  1  0.11379828  0.91779213  0.26449014  1
  H  H151  1  0.04360367  0.80746927  0.23336923  1
  O  O152  1  0.21926969  0.95356601  0.39689196  1
  O  O153  1  0.45526412  0.96846342  0.42940212  1
  H  H154  1  0.47943808  0.86774486  0.09944867  1
  O  O155  1  0.02959861  0.88829066  0.45359827  1
  H  H156  1  0.01642497  0.76169136  0.43748600  1
  C  C157  1  0.01831668  0.98679423  0.13458225  1
  H  H158  1  0.48370809  0.88869214  0.61495473  1
  O  O159  1  0.03511094  0.86942947  0.94495155  1
  H  H160  1  0.28057313  0.82408209  0.69270103  1
  O  O161  1  0.46116743  0.77152292  0.91360694  1
  C  C162  1  0.07756893  0.88077789  0.72830174  1
  H  H163  1  0.07724609  0.94369337  0.74217526  1
  C  C164  1  0.32543760  0.94550857  0.70331091  1
  C  C165  1  0.43132155  0.88581774  0.83951212  1
  C  C166  1  0.31583862  0.86683902  0.73145567  1
  C  C167  1  0.36758549  0.83877126  0.79380932  1
  H  H168  1  0.16185556  0.84369641  0.83251457  1
  C  C169  1  0.28913754  0.96982521  0.62234884  1
  O  O170  1  0.24242840  0.91670160  0.59077156  1
  O  O171  1  0.23340516  0.77806370  0.90568712  1
  C  C172  1  0.43701531  0.97055998  0.81952092  1
  C  C173  1  0.12590197  0.82767792  0.77720386  1
  C  C174  1  0.02236595  0.77044454  0.64075547  1
  C  C175  1  0.48192442  0.84527420  0.90309806  1
  C  C176  1  0.38259753  0.99863183  0.74997197  1
  C  C177  1  0.02227521  0.85028519  0.66277937  1
  H  H178  1  0.36588008  0.77347725  0.80569758  1
  Zn  Zn179  1  0.14270286  0.94012685  0.50034701  1
  H  H180  1  0.02922414  0.98607512  0.92543481  1
  O  O181  1  0.54909803  0.23478020  0.08734092  1
  C  C182  1  0.72455957  0.03954815  0.36879540  1
  H  H183  1  0.73231050  0.18610353  0.31044588  1
  H  H184  1  0.87568565  0.15059554  0.17583833  1
  C  C185  1  0.69257486  0.14354147  0.27257432  1
  C  C186  1  0.99117467  0.23483656  0.36891919  1
  C  C187  1  0.68284075  0.06261085  0.29320587  1
  O  O188  1  0.80139937  0.20385891  0.09989499  1
  C  C189  1  0.94831470  0.11941858  0.28389737  1
  C  C190  1  0.64723647  0.17024152  0.20611726  1
  C  C191  1  0.90002777  0.17139813  0.23614343  1
  C  C192  1  0.54150699  0.15865820  0.09177056  1
  C  C193  1  0.59918487  0.11877485  0.15417344  1
  H  H194  1  0.55504318  0.12304561  0.39814911  1
  C  C195  1  0.59303029  0.03442851  0.16654779  1
  O  O196  1  0.77172363  0.09041509  0.40406893  1
  H  H197  1  0.65169835  0.23587708  0.19106173  1
  O  O198  1  0.99691205  0.11876951  0.04619091  1
  H  H199  1  0.95928050  0.05650741  0.26921738  1
  C  C200  1  0.99752466  0.15690816  0.34981556  1
  Zn  Zn201  1  0.87805133  0.07060580  0.49330875  1
  C  C202  1  0.63751242  0.00655167  0.23986582  1
  H  H203  1  0.51566631  0.00350647  0.05338933  1
  H  H204  1  0.97582089  0.01256191  0.08707373  1
  C  C205  1  0.50832305  0.15383793  0.35446815  1
  C  C206  1  0.50527592  0.23451332  0.37084425  1
  C  C207  1  0.90673401  0.07709399  0.72992427  1
  H  H208  1  0.66884183  0.00873207  0.69033908  1
  H  H209  1  0.74016285  0.05619987  0.81020425  1
  H  H210  1  0.97084497  0.18992137  0.76960490  1
  C  C211  1  0.72879280  0.20417437  0.88152255  1
  C  C212  1  0.70131688  0.09992960  0.77623544  1
  C  C213  1  0.58942639  0.20419774  0.67704178  1
  H  H214  1  0.54677048  0.13373683  0.87605087  1
  C  C215  1  0.68937065  0.17881230  0.80394737  1
  C  C216  1  0.60544215  0.12087510  0.65885666  1
  O  O217  1  0.77238936  0.15780566  0.92396556  1
  C  C218  1  0.65798683  0.07236217  0.70891244  1
  C  C219  1  0.55850514  0.08168879  0.58953116  1
  C  C220  1  0.95819679  0.12421528  0.78546101  1
  O  O221  1  0.56700309  0.00607944  0.58387055  1
  H  H222  1  0.88307464  0.09983642  0.67066202  1
  O  O223  1  0.80676656  0.03134887  0.59601482  1
  C  C224  1  0.98717514  0.01187195  0.87779056  1
  Zn  Zn225  1  0.89309843  0.18359482  0.99622748  1
  C  C226  1  0.63523638  0.23140665  0.75109647  1
  O  O227  1  0.98196885  0.13215396  0.54813733  1
  O  O228  1  0.51734942  0.11944081  0.53671825  1
  H  H229  1  0.50889913  0.24356778  0.57078912  1
  H  H230  1  0.50964653  0.00434319  0.92617455  1
  C  C231  1  0.84490032  0.40816396  0.30716149  1
  H  H232  1  0.76022096  0.41514249  0.19730179  1
  C  C233  1  0.87801639  0.25284046  0.25682557  1
  O  O234  1  0.70518357  0.49308162  0.41289150  1
  C  C235  1  0.78896088  0.27209630  0.13026057  1
  C  C236  1  0.80872102  0.38028235  0.23322013  1
  Zn  Zn237  1  0.63912485  0.29612400  0.00669216  1
  C  C238  1  0.56896340  0.39299920  0.21777372  1
  C  C239  1  0.82290500  0.29989060  0.20779067  1
  O  O240  1  0.74331171  0.32470766  0.09226712  1
  C  C241  1  0.62070850  0.44390033  0.26790226  1
  C  C242  1  0.92849745  0.28743403  0.32488269  1
  C  C243  1  0.90994695  0.36588519  0.35180359  1
  H  H244  1  0.65420477  0.41298767  0.31922120  1
  H  H245  1  0.97918349  0.36997035  0.10766022  1
  C  C246  1  0.95288229  0.41387632  0.41620152  1
  H  H247  1  0.55254238  0.33096096  0.23990181  1
  C  C248  1  0.53528030  0.42321433  0.14454454  1
  H  H249  1  0.82798603  0.47183470  0.31939270  1
  H  H250  1  0.54169379  0.26198248  0.42399128  1
  O  O251  1  0.52590688  0.37254951  0.45839492  1
  O  O252  1  0.93824519  0.48918983  0.41917690  1
  H  H253  1  0.54802347  0.42717368  0.73991674  1
  O  O254  1  0.74721925  0.42051573  0.58316351  1
  C  C255  1  0.82145186  0.35880481  0.72299132  1
  C  C256  1  0.86332811  0.32721508  0.78970047  1
  C  C257  1  0.96971894  0.33291834  0.90419355  1
  H  H258  1  0.96446975  0.39607042  0.62668776  1
  C  C259  1  0.91991912  0.37326727  0.83912449  1
  H  H260  1  0.78188057  0.32095463  0.68016972  1
  O  O261  1  0.71992090  0.27671300  0.90185132  1
  C  C262  1  0.83151163  0.44033407  0.70391358  1
  C  C263  1  0.55923779  0.36571445  0.72218695  1
  C  C264  1  0.53707698  0.25892419  0.62926182  1
  C  C265  1  0.61622428  0.31387997  0.76439043  1
  H  H266  1  0.64764122  0.34672016  0.81603385  1
  C  C267  1  0.79017492  0.46854937  0.62960480  1
  C  C268  1  0.92643564  0.45773554  0.82636638  1
  O  O269  1  0.95835670  0.25850779  0.90511734  1
  C  C270  1  0.51151720  0.33551012  0.65478087  1
  O  O271  1  0.53549097  0.36537723  0.94512219  1
  H  H272  1  0.85406188  0.26529200  0.81206741  1
  C  C273  1  0.87671967  0.49590034  0.75784276  1
  Zn  Zn274  1  0.63172613  0.44711437  0.51038762  1
  H  H275  1  0.51686719  0.48495766  0.91972856  1
  H  H276  1  0.99466770  0.25941542  0.57430259  1
  C  C277  1  0.68751153  0.58174422  0.30271611  1
  H  H278  1  0.73184919  0.70670509  0.31640035  1
  C  C279  1  0.65219798  0.68954351  0.20682613  1
  C  C280  1  0.54552678  0.67674560  0.09548334  1
  H  H281  1  0.51518803  0.60252282  0.38149878  1
  C  C282  1  0.95418920  0.63050627  0.28534023  1
  C  C283  1  0.60183987  0.63884933  0.15704407  1
  H  H284  1  0.96612749  0.56818487  0.26626806  1
  H  H285  1  0.86955201  0.66098221  0.18261747  1
  O  O286  1  0.76740860  0.61011204  0.42332740  1
  O  O287  1  0.98376130  0.62542584  0.05439891  1
  C  C288  1  0.69478644  0.66058890  0.27747860  1
  O  O289  1  0.80210952  0.72364498  0.10042272  1
  C  C290  1  0.59629837  0.55412524  0.17692262  1
  C  C291  1  0.72171541  0.56005299  0.38472717  1
  C  C292  1  0.90002819  0.68053094  0.23798728  1
  H  H293  1  0.50620617  0.52922644  0.07084158  1
  H  H294  1  0.99608097  0.50900586  0.07338074  1
  C  C295  1  0.63874863  0.52544387  0.25072049  1
  C  C296  1  0.98942437  0.65867207  0.35978280  1
  C  C297  1  0.98353548  0.74003789  0.38137184  1
  C  C298  1  0.54429318  0.50468075  0.12544057  1
  C  C299  1  0.64419058  0.58551741  0.70650518  1
  C  C300  1  0.54279999  0.60044185  0.58644690  1
  Zn  Zn301  1  0.88127667  0.69287000  0.99268115  1
  H  H302  1  0.86051397  0.61010373  0.69342304  1
  C  C303  1  0.68779646  0.69968025  0.79596961  1
  O  O304  1  0.79172101  0.67135638  0.90325719  1
  C  C305  1  0.69498218  0.62172349  0.76928982  1
  C  C306  1  0.73734274  0.72148550  0.87147145  1
  C  C307  1  0.95387274  0.62569185  0.78776376  1
  H  H308  1  0.73567983  0.57789987  0.80620547  1
  C  C309  1  0.88854437  0.57891144  0.74513177  1
  O  O310  1  0.54239111  0.52563791  0.57723889  1
  C  C311  1  0.59479035  0.63582685  0.65521847  1
  H  H312  1  0.53817908  0.63263954  0.88020042  1
  C  C313  1  0.59577931  0.71890255  0.67637399  1
  O  O314  1  0.80663939  0.53840865  0.60273671  1
  H  H315  1  0.64610900  0.51864944  0.69886152  1
  H  H316  1  0.97107068  0.68597256  0.77148680  1
  C  C317  1  0.98826936  0.50763110  0.86933509  1
  Zn  Zn318  1  0.88077781  0.57052110  0.50278133  1
  O  O319  1  0.96148752  0.99620865  0.41487695  1
  C  C320  1  0.88268772  0.76359643  0.26127560  1
  C  C321  1  0.93434889  0.79350899  0.33178719  1
  C  C322  1  0.79285920  0.79183324  0.13002855  1
  C  C323  1  0.83457872  0.81507827  0.20872999  1
  C  C324  1  0.81863183  0.89439165  0.23366711  1
  H  H325  1  0.77985274  0.93600684  0.19396324  1
  O  O326  1  0.71220947  0.97175784  0.40479762  1
  C  C327  1  0.97618639  0.92279379  0.40716188  1
  C  C328  1  0.92598132  0.87801193  0.34639584  1
  C  C329  1  0.55574400  0.88117586  0.21099786  1
  H  H330  1  0.64845417  0.90299160  0.31609859  1
  C  C331  1  0.86048946  0.92295053  0.30280703  1
  O  O332  1  0.73696406  0.84031046  0.10226632  1
  Zn  Zn333  1  0.64486156  0.81766640  0.00582201  1
  C  C334  1  0.61431584  0.92574775  0.26100375  1
  O  O335  1  0.52768917  0.85943785  0.45396458  1
  H  H336  1  0.53257495  0.81974471  0.23083760  1
  C  C337  1  0.51981217  0.90496153  0.13651149  1
  H  H338  1  0.84761290  0.98299684  0.32808352  1
  C  C339  1  0.54302358  0.98261709  0.11331021  1
  Zn  Zn340  1  0.63225843  0.93798959  0.49849528  1
  H  H341  1  0.95335695  0.86780588  0.12376456  1
  O  O342  1  0.55532270  0.75071615  0.08595093  1
  H  H343  1  0.65352496  0.75466791  0.19478518  1
  C  C344  1  0.82311678  0.86228647  0.72340501  1
  H  H345  1  0.65712475  0.86468451  0.82195945  1
  C  C346  1  0.92936799  0.96426445  0.82618373  1
  C  C347  1  0.92598818  0.87880627  0.83783085  1
  C  C348  1  0.83587068  0.94358622  0.70444308  1
  C  C349  1  0.62704195  0.83854839  0.76725975  1
  H  H350  1  0.77994879  0.82492289  0.68531399  1
  O  O351  1  0.96783312  0.75897762  0.90554592  1
  O  O352  1  0.74633023  0.91164185  0.59214726  1
  C  C353  1  0.86330212  0.83328222  0.79229369  1
  H  H354  1  0.56223111  0.95098781  0.72994521  1
  C  C355  1  0.79210774  0.96261503  0.62618049  1
  C  C356  1  0.53121413  0.85197876  0.64884313  1
  C  C357  1  0.97951528  0.83286988  0.89789970  1
  H  H358  1  0.85515048  0.77087437  0.80406183  1
  C  C359  1  0.57497609  0.88691869  0.71839874  1
  H  H360  1  0.97974930  0.89572054  0.62922689  1
  C  C361  1  0.89416259  0.99533081  0.74894570  1
  O  O362  1  0.53987995  0.87971064  0.94711114  1
  O  O363  1  0.72102374  0.78979764  0.89987407  1
  C  C364  1  0.55072634  0.77544687  0.62701981  1
  C  C365  1  0.63491382  0.75323693  0.75082828  1
  H  H366  1  0.52461133  0.75109498  0.56686296  1
  H  H367  1  0.97854191  0.75436326  0.59031935  1
