# generated using pymatgen
data_ZnH12C19NO5
_symmetry_space_group_name_H-M   'P 1'
_cell_length_a   29.66812403
_cell_length_b   12.71905094
_cell_length_c   18.42354577
_cell_angle_alpha   90.00000000
_cell_angle_beta   90.00000000
_cell_angle_gamma   90.00000000
_symmetry_Int_Tables_number   1
_chemical_formula_structural   ZnH12C19NO5
_chemical_formula_sum   'Zn16 H192 C304 N16 O80'
_cell_volume   6952.13200913
_cell_formula_units_Z   16
loop_
 _symmetry_equiv_pos_site_id
 _symmetry_equiv_pos_as_xyz
  1  'x, y, z'
loop_
 _atom_site_type_symbol
 _atom_site_label
 _atom_site_symmetry_multiplicity
 _atom_site_fract_x
 _atom_site_fract_y
 _atom_site_fract_z
 _atom_site_occupancy
  C  C0  1  0.19651350  0.44445535  0.15917219  1
  C  C1  1  0.07564500  0.21233689  0.15970764  1
  C  C2  1  0.03816665  0.40966145  0.18882461  1
  C  C3  1  0.08566812  0.39162857  0.20094579  1
  C  C4  1  0.10191809  0.28971876  0.18766434  1
  H  H5  1  0.09318746  0.13808394  0.15235427  1
  C  C6  1  0.02769829  0.23371166  0.14719650  1
  H  H7  1  0.17212713  0.25423452  0.08505971  1
  C  C8  1  0.00910644  0.33071201  0.16636006  1
  N  N9  1  0.13418094  0.14018606  0.03930219  1
  C  C10  1  0.23270262  0.37183282  0.15993206  1
  O  O11  1  0.15477810  0.26048513  0.20821454  1
  H  H12  1  0.23111903  0.30557376  0.11997924  1
  H  H13  1  0.16702960  0.44305120  0.12406672  1
  H  H14  1  0.10583733  0.45523891  0.22348025  1
  H  H15  1  0.01897429  0.48106762  0.20086813  1
  C  C16  1  0.16627003  0.21372591  0.03182415  1
  C  C17  1  0.16499499  0.17570715  0.24345142  1
  H  H18  1  0.00731990  0.16579776  0.12542487  1
  O  O19  1  0.05999386  0.46523019  0.03463416  1
  H  H20  1  0.23930059  0.18988395  0.24180758  1
  O  O21  1  0.30513266  0.29590149  0.21266494  1
  O  O22  1  0.49235368  0.23417543  0.19858607  1
  O  O23  1  0.44190756  0.12446137  0.01170357  1
  O  O24  1  0.43899664  0.32051943  0.13916853  1
  C  C25  1  0.46256354  0.30283001  0.19406871  1
  C  C26  1  0.26858832  0.37467768  0.20919551  1
  H  H27  1  0.40054970  0.46158704  0.21856123  1
  Zn  Zn28  1  0.45567773  0.28640325  0.02512296  1
  H  H29  1  0.38351022  0.21296106  0.24158260  1
  C  C30  1  0.47090915  0.05065221  0.00344210  1
  C  C31  1  0.05775758  0.40725550  0.37272727  1
  C  C32  1  0.07690949  0.30962799  0.35674844  1
  H  H33  1  0.11375411  0.29114212  0.34782405  1
  C  C34  1  0.04670384  0.22656765  0.34208175  1
  H  H35  1  0.06205897  0.15286392  0.32600090  1
  C  C36  1  0.01064964  0.42196351  0.36899550  1
  C  C37  1  0.12988690  0.10761737  0.26866511  1
  C  C38  1  0.21659381  0.05243446  0.29990394  1
  H  H39  1  0.11605751  0.28492230  0.47382462  1
  O  O40  1  0.05183676  0.13605080  0.47966079  1
  H  H41  1  0.09381047  0.13057434  0.25945635  1
  C  C42  1  0.13524079  0.01774158  0.30820060  1
  C  C43  1  0.20988708  0.14395039  0.26106418  1
  C  C44  1  0.09483834  0.49265793  0.38632411  1
  C  C45  1  0.13025746  0.21223549  0.48770785  1
  C  C46  1  0.09870393  0.12831473  0.48872441  1
  O  O47  1  0.13532668  0.48199747  0.37313105  1
  H  H48  1  0.19338030  0.28152052  0.49948296  1
  H  H49  1  0.25147336  0.02903996  0.31623338  1
  C  C50  1  0.38663436  0.21412489  0.48815915  1
  C  C51  1  0.32184147  0.27705463  0.28022212  1
  C  C52  1  0.46866894  0.38856850  0.38920368  1
  H  H53  1  0.41881405  0.17111605  0.35531357  1
  C  C54  1  0.41074736  0.48148739  0.33309412  1
  H  H55  1  0.35287005  0.43852142  0.39879037  1
  C  C56  1  0.43398988  0.46021382  0.39682777  1
  H  H57  1  0.29754668  0.46059819  0.29507070  1
  C  C58  1  0.30068826  0.30012818  0.34685427  1
  C  C59  1  0.26992427  0.45910143  0.25689762  1
  C  C60  1  0.41947554  0.43698694  0.26614100  1
  H  H61  1  0.30030396  0.30234890  0.46670732  1
  H  H62  1  0.26816431  0.33685497  0.33715974  1
  C  C63  1  0.47893736  0.33842553  0.32614772  1
  C  C64  1  0.36238453  0.23696628  0.41901688  1
  C  C65  1  0.36513447  0.23133146  0.28858542  1
  C  C66  1  0.45263542  0.35896476  0.26365762  1
  H  H67  1  0.48832322  0.36005993  0.43661810  1
  C  C68  1  0.38516666  0.20885719  0.35470713  1
  C  C69  1  0.31916696  0.28149383  0.41592912  1
  O  O70  1  0.42595763  0.17464804  0.48302197  1
  C  C71  1  0.18841895  0.32275157  0.65522034  1
  C  C72  1  0.18683217  0.36480992  0.72671530  1
  N  N73  1  0.20658131  0.37044655  0.60008984  1
  H  H74  1  0.13849618  0.07888428  0.65803567  1
  H  H75  1  0.18307135  0.23954630  0.63932398  1
  C  C76  1  0.11240360  0.04634103  0.69863962  1
  C  C77  1  0.03340714  0.34575257  0.57053223  1
  H  H78  1  0.04416624  0.14140326  0.62243022  1
  C  C79  1  0.05599012  0.44477865  0.55776289  1
  C  C80  1  0.02423356  0.07690554  0.60182703  1
  C  C81  1  0.02311357  0.07394878  0.52596908  1
  C  C82  1  0.19147907  0.47499992  0.73781005  1
  H  H83  1  0.09622153  0.44181546  0.72653775  1
  O  O84  1  0.09729639  0.23510516  0.73177384  1
  C  C85  1  0.19500637  0.10800437  0.51929869  1
  C  C86  1  0.24214208  0.08708161  0.53400700  1
  H  H87  1  0.00508439  0.01866779  0.70136688  1
  C  C88  1  0.12160925  0.03557367  0.50077124  1
  C  C89  1  0.00059374  0.00790151  0.64553270  1
  C  C90  1  0.17542131  0.20580578  0.50133294  1
  H  H91  1  0.02994120  0.28151512  0.53026714  1
  C  C92  1  0.21059577  0.47544717  0.60636253  1
  C  C93  1  0.00869121  0.39903172  0.68147633  1
  N  N94  1  0.01360467  0.32081903  0.63200545  1
  C  C95  1  0.16642590  0.01779777  0.51439070  1
  C  C96  1  0.08998148  0.12009735  0.74217890  1
  C  C97  1  0.23650357  0.11241836  0.71826330  1
  H  H98  1  0.23709253  0.05759262  0.66853056  1
  H  H99  1  0.07212661  0.46228209  0.50561541  1
  C  C100  1  0.45375033  0.24500382  0.66677006  1
  C  C101  1  0.33566896  0.48151348  0.64290628  1
  O  O102  1  0.26971787  0.16138289  0.53267118  1
  C  C103  1  0.38421741  0.01258466  0.66286546  1
  N  N104  1  0.26939289  0.18280071  0.71738540  1
  O  O105  1  0.37008266  0.23707698  0.54788004  1
  C  C106  1  0.48170442  0.16211123  0.68701094  1
  C  C107  1  0.38614607  0.36778501  0.71088943  1
  C  C108  1  0.42413786  0.28906465  0.72044871  1
  H  H109  1  0.45364516  0.26888088  0.61006181  1
  Zn  Zn110  1  0.31704339  0.18354172  0.62293901  1
  Zn  Zn111  1  0.44435556  0.02009999  0.52581981  1
  H  H112  1  0.39423421  0.40694104  0.59806698  1
  O  O113  1  0.37399513  0.10524052  0.67486384  1
  C  C114  1  0.37460206  0.42006807  0.64543252  1
  H  H115  1  0.31613630  0.04756596  0.74925976  1
  C  C116  1  0.08135351  0.26080067  0.85820795  1
  H  H117  1  0.08549088  0.17741478  0.86942353  1
  H  H118  1  0.16423507  0.36981652  0.85608901  1
  C  C119  1  0.07103367  0.32600507  0.91749455  1
  H  H120  1  0.03646488  0.12523640  0.82318682  1
  C  C121  1  0.08715170  0.29853750  0.78768071  1
  C  C122  1  0.17321978  0.45282154  0.86670414  1
  C  C123  1  0.18140994  0.16607174  0.90512454  1
  C  C124  1  0.14673233  0.09075588  0.91006025  1
  C  C125  1  0.09051666  0.40832502  0.78084189  1
  C  C126  1  0.05989064  0.07785826  0.79098652  1
  C  C127  1  0.21030577  0.17318230  0.83777019  1
  C  C128  1  0.07007743  0.43301986  0.90750510  1
  C  C129  1  0.12700982  0.08150679  0.97981047  1
  C  C130  1  0.18558719  0.23754256  0.96583498  1
  C  C131  1  0.20607328  0.10687262  0.77614891  1
  H  H132  1  0.14021660  0.03273609  0.86592342  1
  H  H133  1  0.10466553  0.01389035  0.99570038  1
  H  H134  1  0.20843784  0.30324785  0.96244223  1
  H  H135  1  0.06748732  0.29092102  0.97023609  1
  H  H136  1  0.17502507  0.05661374  0.77844330  1
  H  H137  1  0.18386318  0.30844707  0.76908062  1
  O  O138  1  0.00035163  0.04863710  0.94665574  1
  C  C139  1  0.07942192  0.47298195  0.83906474  1
  C  C140  1  0.16321560  0.48734393  0.93712142  1
  H  H141  1  0.15046358  0.43430445  0.98102954  1
  C  C142  1  0.24887144  0.24090192  0.83448726  1
  H  H143  1  0.25262249  0.29754452  0.88043340  1
  C  C144  1  0.32296836  0.46446403  0.76507644  1
  O  O145  1  0.40819997  0.33146793  0.94828163  1
  H  H146  1  0.30767179  0.28702179  0.75835967  1
  H  H147  1  0.49991785  0.37382684  0.77110510  1
  H  H148  1  0.39303063  0.01845781  0.91008629  1
  C  C149  1  0.49339846  0.44541989  0.80439441  1
  C  C150  1  0.36170409  0.40550535  0.77211247  1
  H  H151  1  0.29974672  0.49118984  0.80944699  1
  C  C152  1  0.30195847  0.46886105  0.94883805  1
  C  C153  1  0.34852076  0.46171661  0.93927289  1
  C  C154  1  0.46324426  0.16845048  0.80533906  1
  H  H155  1  0.28367643  0.40545559  0.98060073  1
  O  O156  1  0.34103519  0.30067721  0.99564753  1
  C  C157  1  0.42861053  0.24176079  0.78832123  1
  H  H158  1  0.37133981  0.38099632  0.82897583  1
  C  C159  1  0.27546361  0.24597365  0.77023788  1
  C  C160  1  0.36809171  0.35223380  0.96113824  1
  H  H161  1  0.40352140  0.25681555  0.83061718  1
  H  H162  1  0.46766067  0.13257745  0.85964081  1
  N  N163  1  0.48631259  0.12365999  0.75478805  1
  C  C164  1  0.08163437  0.85261353  0.11541742  1
  C  C165  1  0.03656767  0.87626906  0.12919774  1
  O  O166  1  0.13675276  0.61752330  0.17432867  1
  C  C167  1  0.16861046  0.61634986  0.21769953  1
  H  H168  1  0.14662958  0.82304036  0.16445955  1
  C  C169  1  0.22525982  0.67066815  0.08607276  1
  C  C170  1  0.11211592  0.83693730  0.17155832  1
  C  C171  1  0.10183263  0.84360055  0.04012600  1
  O  O172  1  0.14121648  0.82509917  0.03197602  1
  Zn  Zn173  1  0.15202766  0.63925226  0.05469989  1
  C  C174  1  0.24131047  0.76790942  0.11395537  1
  C  C175  1  0.02155083  0.87987055  0.20081461  1
  H  H176  1  0.01133947  0.88484318  0.08589920  1
  H  H177  1  0.21721938  0.83560942  0.11575810  1
  C  C178  1  0.20109557  0.52428859  0.21137352  1
  H  H179  1  0.23910607  0.51092346  0.06393917  1
  C  C180  1  0.09377962  0.82374315  0.24063376  1
  C  C181  1  0.36684129  0.72973882  0.22965736  1
  C  C182  1  0.25271779  0.58361938  0.08375899  1
  C  C183  1  0.28679239  0.76550641  0.13687093  1
  C  C184  1  0.31514157  0.67839608  0.13336729  1
  H  H185  1  0.43760836  0.76145249  0.22392252  1
  H  H186  1  0.30329210  0.83455787  0.16300409  1
  H  H187  1  0.32288805  0.52195811  0.09768876  1
  C  C188  1  0.30023716  0.58745098  0.10385299  1
  O  O189  1  0.36508142  0.69819243  0.16051134  1
  C  C190  1  0.19440601  0.89350248  0.36385247  1
  Zn  Zn191  1  0.15668486  0.65781005  0.38145402  1
  O  O192  1  0.03989733  0.85311891  0.33865633  1
  O  O193  1  0.16623098  0.82811402  0.38612554  1
  O  O194  1  0.21389035  0.62863528  0.46016677  1
  O  O195  1  0.08457787  0.57879308  0.41038356  1
  H  H196  1  0.11501861  0.80102668  0.28694273  1
  H  H197  1  0.10663186  0.96644992  0.32202376  1
  C  C198  1  0.04901640  0.84958061  0.25867820  1
  O  O199  1  0.23615966  0.88562236  0.37529040  1
  C  C200  1  0.18084518  0.99121540  0.32419895  1
  C  C201  1  0.24531974  0.66926744  0.49591502  1
  H  H202  1  0.23783583  0.60202941  0.29806741  1
  H  H203  1  0.01313639  0.81481356  0.47121962  1
  O  O204  1  0.17357224  0.68276715  0.26589026  1
  C  C205  1  0.00895202  0.78410806  0.35893281  1
  C  C206  1  0.23732547  0.53661596  0.25816500  1
  H  H207  1  0.27242318  0.51165553  0.40755242  1
  O  O208  1  0.42490996  0.51434784  0.46291800  1
  C  C209  1  0.49576292  0.71798629  0.43827213  1
  C  C210  1  0.49438730  0.66443483  0.37149689  1
  O  O211  1  0.34763714  0.88252833  0.48709217  1
  C  C212  1  0.34377878  0.50241750  0.43598310  1
  C  C213  1  0.40766875  0.76478748  0.25865058  1
  C  C214  1  0.37582043  0.80775196  0.37403350  1
  C  C215  1  0.29987854  0.53984906  0.44071117  1
  H  H216  1  0.29952761  0.69970810  0.26328593  1
  C  C217  1  0.38019944  0.86063719  0.44539242  1
  H  H218  1  0.44620557  0.83591984  0.34483092  1
  C  C219  1  0.33345611  0.76591867  0.35405104  1
  C  C220  1  0.38029603  0.54894636  0.47389271  1
  C  C221  1  0.41298563  0.80562785  0.32789645  1
  C  C222  1  0.29157330  0.62757067  0.48698627  1
  Zn  Zn223  1  0.27515274  0.89535748  0.47511472  1
  H  H224  1  0.38640751  0.54451789  0.33407531  1
  C  C225  1  0.33087677  0.73221477  0.28188791  1
  H  H226  1  0.46445170  0.62817821  0.34191074  1
  O  O227  1  0.41821357  0.89284413  0.46041164  1
  H  H228  1  0.30370887  0.76962041  0.39018816  1
  H  H229  1  0.46377944  0.73122099  0.46804296  1
  H  H230  1  0.17990498  0.93680278  0.51520561  1
  N  N231  1  0.10911455  0.82604127  0.55852169  1
  H  H232  1  0.05418175  0.89930324  0.60014730  1
  C  C233  1  0.06991624  0.81981805  0.59026115  1
  C  C234  1  0.05060494  0.72607902  0.61319103  1
  C  C235  1  0.07513253  0.63346286  0.59778537  1
  H  H236  1  0.13241968  0.88230125  0.68064210  1
  C  C237  1  0.11676160  0.63994348  0.56196724  1
  C  C238  1  0.13053838  0.73927000  0.53951639  1
  H  H239  1  0.02130086  0.71737586  0.64787754  1
  H  H240  1  0.21025277  0.61080071  0.67003270  1
  H  H241  1  0.16157396  0.75520576  0.50904852  1
  C  C242  1  0.11175110  0.93944451  0.71171304  1
  O  O243  1  0.24024925  0.76065920  0.52365039  1
  H  H244  1  0.13642132  0.56856811  0.54996622  1
  C  C245  1  0.20571879  0.52508755  0.67311948  1
  H  H246  1  0.09788874  0.96773819  0.50433379  1
  C  C247  1  0.05310223  0.52189908  0.61178966  1
  H  H248  1  0.01492896  0.56630827  0.71099595  1
  H  H249  1  0.22480861  0.51306874  0.55724705  1
  C  C250  1  0.02446514  0.50304560  0.67299607  1
  O  O251  1  0.10890487  0.73182865  0.74251026  1
  H  H252  1  0.39391463  0.79160172  0.66341036  1
  H  H253  1  0.31880934  0.51306593  0.59218541  1
  H  H254  1  0.31743400  0.74081316  0.56214053  1
  C  C255  1  0.35856881  0.92803785  0.70498118  1
  H  H256  1  0.46876914  0.54441931  0.71754199  1
  N  N257  1  0.31241987  0.50611356  0.70300809  1
  C  C258  1  0.37011911  0.63016298  0.52315100  1
  C  C259  1  0.32660825  0.67385592  0.52708007  1
  C  C260  1  0.36683870  0.82128354  0.69914085  1
  H  H261  1  0.48252246  0.71034732  0.58669777  1
  H  H262  1  0.47808748  0.81478671  0.70632869  1
  H  H263  1  0.39828794  0.66193591  0.55665857  1
  O  O264  1  0.41884934  0.98365409  0.62674852  1
  O  O265  1  0.25201306  0.99425739  0.55197825  1
  H  H266  1  0.34362705  0.66703787  0.74090463  1
  C  C267  1  0.34124554  0.75321378  0.74373263  1
  C  C268  1  0.32392055  0.96424000  0.74727630  1
  C  C269  1  0.08167796  0.78304774  0.77788071  1
  O  O270  1  0.05325601  0.73875468  0.82017378  1
  Zn  Zn271  1  0.03079649  0.75570823  0.93081037  1
  C  C272  1  0.18361739  0.65743501  0.90755403  1
  H  H273  1  0.18646698  0.73433735  0.92882968  1
  C  C274  1  0.19466521  0.62661101  0.83737128  1
  N  N275  1  0.16792943  0.58659825  0.95588386  1
  H  H276  1  0.03351672  0.93589930  0.84808289  1
  H  H277  1  0.07984147  0.55729528  0.83565718  1
  C  C278  1  0.08271983  0.90126045  0.76539877  1
  H  H279  1  0.24649180  0.56583235  0.92528624  1
  C  C280  1  0.18782002  0.52324066  0.81159077  1
  O  O281  1  0.06712065  0.60165129  0.96695974  1
  C  C282  1  0.06464682  0.50280195  0.97555947  1
  C  C283  1  0.05715494  0.96963006  0.80538520  1
  H  H284  1  0.20667077  0.68325548  0.79604492  1
  O  O285  1  0.07428379  0.84732400  0.98521214  1
  C  C286  1  0.49842967  0.90912981  0.92652509  1
  H  H287  1  0.49788749  0.52824036  0.98234181  1
  C  C288  1  0.46293170  0.97789069  0.93993509  1
  C  C289  1  0.42262727  0.96713985  0.90255073  1
  H  H290  1  0.38590874  0.87589738  0.82241433  1
  C  C291  1  0.49017782  0.82854822  0.87498134  1
  C  C292  1  0.30427842  0.63189839  0.87176818  1
  C  C293  1  0.37578553  0.53514901  0.90332783  1
  O  O294  1  0.44789460  0.71790778  0.78969120  1
  O  O295  1  0.28184830  0.71310361  0.84182390  1
  C  C296  1  0.41687402  0.88411118  0.85232752  1
  C  C297  1  0.47243558  0.61615719  0.89103089  1
  C  C298  1  0.30662552  0.78048746  0.78910507  1
  C  C299  1  0.35135639  0.61606375  0.87087702  1
  H  H300  1  0.37108685  0.67535139  0.84064320  1
  C  C301  1  0.47507451  0.53650660  0.77568005  1
  H  H302  1  0.41291142  0.52283094  0.89948256  1
  C  C303  1  0.48956871  0.52617514  0.92421716  1
  C  C304  1  0.45080632  0.80796968  0.84210461  1
  C  C305  1  0.30071971  0.88812059  0.79011207  1
  H  H306  1  0.27560180  0.92198942  0.82455895  1
  C  C307  1  0.46464505  0.62682833  0.81723535  1
  H  H308  1  0.46669886  0.68442222  0.92563495  1
  C  C309  1  0.28327492  0.55555001  0.91701265  1
  C  C310  1  0.63887977  0.19025268  0.20055902  1
  C  C311  1  0.64802993  0.08301128  0.19588623  1
  C  C312  1  0.60415336  0.23896157  0.15171645  1
  O  O313  1  0.58270868  0.18354146  0.10653632  1
  O  O314  1  0.60229554  0.33674114  0.15022691  1
  Zn  Zn315  1  0.51654440  0.11442309  0.13432984  1
  C  C316  1  0.70847272  0.08735637  0.03668829  1
  H  H317  1  0.69349018  0.16449526  0.03481089  1
  C  C318  1  0.68808264  0.36562770  0.05732398  1
  Zn  Zn319  1  0.59102504  0.38514224  0.03449365  1
  H  H320  1  0.67456831  0.40895028  0.10196716  1
  C  C321  1  0.73895875  0.06345528  0.09294113  1
  C  C322  1  0.73341711  0.33213120  0.04868706  1
  H  H323  1  0.62986543  0.03132400  0.15800901  1
  O  O324  1  0.50580728  0.03913709  0.04300000  1
  H  H325  1  0.74538747  0.09768599  0.14777265  1
  C  C326  1  0.67859044  0.04031927  0.24446889  1
  N  N327  1  0.65717139  0.34317381  0.00768984  1
  O  O328  1  0.92766677  0.29166142  0.12719998  1
  H  H329  1  0.92055387  0.11616658  0.16463649  1
  H  H330  1  0.81346927  0.26737324  0.12605187  1
  C  C331  1  0.80449665  0.24724473  0.24392891  1
  H  H332  1  0.96156915  0.12078194  0.05114785  1
  O  O333  1  0.94084807  0.43277179  0.18807899  1
  H  H334  1  0.75969561  0.35773686  0.08726466  1
  C  C335  1  0.95415312  0.35170345  0.15875862  1
  H  H336  1  0.85394547  0.10968737  0.11126743  1
  C  C337  1  0.84398521  0.12531654  0.17049632  1
  C  C338  1  0.82022614  0.21859029  0.17396494  1
  C  C339  1  0.85215499  0.05183200  0.22748792  1
  C  C340  1  0.92528392  0.04388555  0.13236631  1
  O  O341  1  0.77433193  0.39479262  0.19219582  1
  C  C342  1  0.94769029  0.04410214  0.06647506  1
  C  C343  1  0.55156331  0.15720786  0.38307471  1
  H  H344  1  0.55646139  0.24010004  0.39798092  1
  C  C345  1  0.55971563  0.12370170  0.31252919  1
  C  C346  1  0.69900349  0.09662828  0.30024367  1
  H  H347  1  0.71333067  0.25381029  0.33409722  1
  C  C348  1  0.69232684  0.20449102  0.29717982  1
  C  C349  1  0.53513268  0.08957798  0.43674193  1
  N  N350  1  0.61215526  0.40135370  0.36234379  1
  H  H351  1  0.63822916  0.26538479  0.38594305  1
  C  C352  1  0.62416093  0.33540880  0.41498679  1
  H  H353  1  0.57827452  0.17162280  0.27168486  1
  C  C354  1  0.59037033  0.48678224  0.38453576  1
  O  O355  1  0.73107193  0.05020739  0.34940177  1
  H  H356  1  0.65879445  0.33829457  0.25287978  1
  C  C357  1  0.66158375  0.25408778  0.25107023  1
  H  H358  1  0.50739120  0.28849649  0.31899304  1
  C  C359  1  0.54798404  0.01843769  0.29429294  1
  C  C360  1  0.61997931  0.35411585  0.49137312  1
  C  C361  1  0.89730531  0.07336668  0.47422415  1
  H  H362  1  0.99544407  0.49966174  0.38083406  1
  O  O363  1  0.89755186  0.48606888  0.38748902  1
  O  O364  1  0.78991432  0.21315788  0.48816226  1
  O  O365  1  0.77389161  0.38928321  0.31294233  1
  H  H366  1  0.94330575  0.20110002  0.44355185  1
  C  C367  1  0.94682283  0.08180772  0.36450181  1
  O  O368  1  0.97870057  0.12356640  0.32138359  1
  H  H369  1  0.94846827  0.34780364  0.34474799  1
  O  O370  1  0.84021418  0.32004642  0.44190023  1
  C  C371  1  0.81247077  0.18029642  0.30260897  1
  C  C372  1  0.82386285  0.26083008  0.49123186  1
  C  C373  1  0.98420523  0.33021889  0.35135408  1
  C  C374  1  0.83462129  0.08765982  0.29521601  1
  Zn  Zn375  1  0.81934802  0.46413063  0.38256756  1
  C  C376  1  0.99972733  0.22756923  0.33958197  1
  H  H377  1  0.83904288  0.03701796  0.34629539  1
  H  H378  1  0.80225899  0.20291835  0.35758371  1
  C  C379  1  0.92863547  0.12285681  0.43029224  1
  C  C380  1  0.78177701  0.35073894  0.25015580  1
  C  C381  1  0.69080917  0.46249426  0.65625502  1
  C  C382  1  0.71567680  0.37346912  0.68161739  1
  H  H383  1  0.65851651  0.48089708  0.68159221  1
  O  O384  1  0.53416657  0.21502672  0.53738331  1
  C  C385  1  0.59399582  0.40438761  0.64967416  1
  H  H386  1  0.60153235  0.31634142  0.63606306  1
  C  C387  1  0.59024862  0.47633868  0.59140346  1
  H  H388  1  0.63507882  0.29641946  0.53094120  1
  H  H389  1  0.50454883  0.11909401  0.64331735  1
  C  C390  1  0.59844497  0.44870269  0.51454692  1
  C  C391  1  0.52809989  0.12835704  0.51485662  1
  H  H392  1  0.69536306  0.08944014  0.71547392  1
  C  C393  1  0.72685280  0.11247751  0.74039225  1
  O  O394  1  0.70157871  0.29888914  0.72790000  1
  O  O395  1  0.50903118  0.05698531  0.55574890  1
  C  C396  1  0.58880775  0.43809688  0.72273925  1
  H  H397  1  0.89262411  0.40453291  0.52882458  1
  H  H398  1  0.81085944  0.13878623  0.60909245  1
  H  H399  1  0.99559654  0.35594356  0.73066283  1
  C  C400  1  0.89969945  0.27277007  0.69269543  1
  C  C401  1  0.75880938  0.36614894  0.64687778  1
  H  H402  1  0.86997947  0.43386051  0.74878635  1
  C  C403  1  0.76959851  0.42719529  0.58752892  1
  H  H404  1  0.88855964  0.11182718  0.52713419  1
  C  C405  1  0.84033854  0.19617276  0.61695584  1
  H  H406  1  0.85550153  0.13877034  0.72066115  1
  C  C407  1  0.86744931  0.20033278  0.68123547  1
  C  C408  1  0.85285634  0.26385042  0.56398377  1
  H  H409  1  0.93200911  0.41509207  0.64616321  1
  H  H410  1  0.78034468  0.30232032  0.66831553  1
  C  C411  1  0.90568257  0.34886045  0.64036118  1
  H  H412  1  0.80267001  0.41510750  0.55548738  1
  C  C413  1  0.88586419  0.34269986  0.57259432  1
  C  C414  1  0.66812952  0.30399287  0.94504053  1
  H  H415  1  0.63795259  0.29706881  0.91254558  1
  C  C416  1  0.71359581  0.26829395  0.92925636  1
  O  O417  1  0.54172601  0.27931855  0.88967121  1
  H  H418  1  0.54804035  0.10326698  0.90557914  1
  C  C419  1  0.61965221  0.07653029  0.94202355  1
  C  C420  1  0.58227499  0.06925101  0.89598329  1
  H  H421  1  0.71973455  0.23164960  0.87532785  1
  C  C422  1  0.52404791  0.35040865  0.92231442  1
  N  N423  1  0.58287471  0.01989204  0.83284437  1
  C  C424  1  0.66094111  0.02086792  0.92660050  1
  H  H425  1  0.59011280  0.39003954  0.77207863  1
  C  C426  1  0.69975775  0.01690504  0.98008176  1
  O  O427  1  0.51989102  0.34922049  0.99306693  1
  C  C428  1  0.50156802  0.44261429  0.88051377  1
  C  C429  1  0.74696730  0.28068534  0.98300619  1
  H  H430  1  0.61477474  0.12212429  0.99316310  1
  C  C431  1  0.73469327  0.22124072  0.75269437  1
  C  C432  1  0.92635562  0.36237046  0.80434439  1
  C  C433  1  0.89658458  0.44668745  0.79046009  1
  O  O434  1  0.87104605  0.00389491  0.83956057  1
  H  H435  1  0.83605941  0.19861112  0.84149137  1
  C  C436  1  0.77593607  0.24801457  0.78436522  1
  H  H437  1  0.81978947  0.40451737  0.94106278  1
  C  C438  1  0.79987455  0.06913668  0.78986177  1
  H  H439  1  0.87373291  0.03183137  0.97314107  1
  H  H440  1  0.78320352  0.33189399  0.79006069  1
  H  H441  1  0.90620212  0.32981090  0.94242374  1
  C  C442  1  0.82928366  0.32301867  0.95515094  1
  H  H443  1  0.98355123  0.48375404  0.94410080  1
  H  H444  1  0.98291355  0.31927145  0.87125807  1
  H  H445  1  0.78665408  0.07740879  0.98268772  1
  C  C446  1  0.85769568  0.11241816  0.96923068  1
  C  C447  1  0.95828398  0.47199214  0.90201764  1
  C  C448  1  0.81209040  0.14067959  0.97696970  1
  C  C449  1  0.87465774  0.28637998  0.95460418  1
  C  C450  1  0.80647197  0.17337363  0.80956970  1
  C  C451  1  0.79629047  0.24496466  0.97163415  1
  N  N452  1  0.88908846  0.18565233  0.96147357  1
  C  C453  1  0.95719707  0.38165605  0.85969436  1
  C  C454  1  0.76020664  0.03772823  0.75467816  1
  O  O455  1  0.92376214  0.27178630  0.76504173  1
  C  C456  1  0.64773956  0.73750896  0.18777074  1
  C  C457  1  0.58290377  0.89882805  0.20758620  1
  C  C458  1  0.61553857  0.75981846  0.13594337  1
  C  C459  1  0.58447137  0.84112979  0.14441355  1
  C  C460  1  0.68281905  0.65751296  0.17122607  1
  O  O461  1  0.51889949  0.65865460  0.07047483  1
  O  O462  1  0.68260115  0.60224881  0.11716970  1
  C  C463  1  0.54896079  0.60487361  0.04875974  1
  H  H464  1  0.61617981  0.71836789  0.08153544  1
  H  H465  1  0.56202246  0.86122496  0.09917969  1
  O  O466  1  0.71596232  0.64214713  0.21445494  1
  H  H467  1  0.64554689  0.58294417  0.02280990  1
  O  O468  1  0.55992251  0.51751762  0.07851340  1
  O  O469  1  0.55220073  0.98200133  0.22024849  1
  H  H470  1  0.68630487  0.95331747  0.24037815  1
  H  H471  1  0.93192465  0.78414400  0.01805543  1
  H  H472  1  0.76166951  0.99314364  0.21253860  1
  H  H473  1  0.79821181  0.80988290  0.18425166  1
  C  C474  1  0.76267656  0.91784514  0.03104406  1
  H  H475  1  0.78555167  0.85203099  0.04018288  1
  H  H476  1  0.98754443  0.90544837  0.21306081  1
  N  N477  1  0.76541626  0.97951008  0.08973539  1
  C  C478  1  0.94938778  0.95432237  0.02013865  1
  O  O479  1  0.82260404  0.63550563  0.21521621  1
  O  O480  1  0.80060970  0.56392467  0.03714600  1
  C  C481  1  0.90169701  0.95316951  0.15376215  1
  C  C482  1  0.90494954  0.86746565  0.11103793  1
  C  C483  1  0.78490925  0.83400479  0.23767177  1
  Zn  Zn484  1  0.76874794  0.55792677  0.15643267  1
  H  H485  1  0.88599973  0.79645953  0.13019126  1
  O  O486  1  0.87490161  0.96045900  0.21957420  1
  C  C487  1  0.93000624  0.86425501  0.04636424  1
  C  C488  1  0.56522645  0.70863601  0.34782201  1
  H  H489  1  0.59340143  0.70840392  0.30803198  1
  C  C490  1  0.57240868  0.74727178  0.41750117  1
  H  H491  1  0.61568492  0.93183028  0.30899959  1
  H  H492  1  0.60758082  0.76933015  0.43368763  1
  C  C493  1  0.53478934  0.95482088  0.35046468  1
  C  C494  1  0.52783567  0.98355724  0.42282861  1
  N  N495  1  0.52847837  0.66284454  0.32429398  1
  H  H496  1  0.56144038  0.58050482  0.46899454  1
  C  C497  1  0.53766115  0.75150024  0.46998690  1
  O  O498  1  0.72968792  0.65066256  0.49327485  1
  H  H499  1  0.67070351  0.78462935  0.29527008  1
  C  C500  1  0.58344767  0.51444994  0.45747621  1
  H  H501  1  0.51788807  0.92665429  0.46247947  1
  H  H502  1  0.52856527  0.87109926  0.33582697  1
  H  H503  1  0.57741640  0.53731706  0.34049985  1
  C  C504  1  0.64727579  0.80049924  0.25137093  1
  C  C505  1  0.61670486  0.87959550  0.25932654  1
  C  C506  1  0.92604708  0.98564416  0.34989518  1
  C  C507  1  0.79392076  0.76860607  0.29590484  1
  C  C508  1  0.98195170  0.72393248  0.30980035  1
  C  C509  1  0.75172527  0.95541327  0.32605014  1
  H  H510  1  0.79345977  0.73599796  0.41357717  1
  C  C511  1  0.94645576  0.62743628  0.40235418  1
  H  H512  1  0.92717697  0.60928567  0.28876282  1
  C  C513  1  0.91547125  0.54555222  0.43170314  1
  O  O514  1  0.83770639  0.61482035  0.32954284  1
  H  H515  1  0.75783742  0.91584355  0.43925719  1
  H  H516  1  0.93360655  0.94379955  0.29808551  1
  C  C517  1  0.89767017  0.92600395  0.39097960  1
  C  C518  1  0.78475508  0.79379142  0.36890525  1
  H  H519  1  0.98740432  0.98311400  0.44802216  1
  H  H520  1  0.88745648  0.84763311  0.37466579  1
  O  O521  1  0.79564932  0.56240939  0.47800478  1
  C  C522  1  0.88220357  0.97050710  0.45858087  1
  C  C523  1  0.96621094  0.69432465  0.45386543  1
  C  C524  1  0.76346113  0.88747936  0.38312034  1
  C  C525  1  0.95100724  0.64874620  0.32822528  1
  H  H526  1  0.98999388  0.74065230  0.25435390  1
  C  C527  1  0.99709799  0.76721445  0.43206254  1
  C  C528  1  0.82031433  0.66755541  0.27989825  1
  O  O529  1  0.84687178  0.80663278  0.48358584  1
  C  C530  1  0.76583258  0.92984602  0.25526984  1
  H  H531  1  0.68228222  0.83008583  0.67942136  1
  C  C532  1  0.70382655  0.76787276  0.70085050  1
  C  C533  1  0.57966309  0.60912800  0.68734357  1
  H  H534  1  0.57388220  0.64236422  0.57438550  1
  C  C535  1  0.58148925  0.58071405  0.61407017  1
  C  C536  1  0.56794248  0.92058279  0.63778967  1
  C  C537  1  0.54247835  0.79449944  0.54825932  1
  H  H538  1  0.67948802  0.59318458  0.58597308  1
  N  N539  1  0.53378392  0.90063237  0.68000340  1
  C  C540  1  0.57577423  0.86415200  0.57133781  1
  H  H541  1  0.57145052  0.68859004  0.71013797  1
  C  C542  1  0.50668370  0.81951710  0.66623487  1
  C  C543  1  0.51010245  0.76612510  0.60145408  1
  H  H544  1  0.60180064  0.88607965  0.53364361  1
  H  H545  1  0.59089441  0.98611050  0.65140445  1
  N  N546  1  0.58278359  0.54079266  0.74129869  1
  C  C547  1  0.74336110  0.74153013  0.66554059  1
  C  C548  1  0.70205200  0.53337710  0.60306419  1
  C  C549  1  0.74281626  0.51115815  0.56688816  1
  Zn  Zn550  1  0.85148374  0.65237683  0.53279662  1
  H  H551  1  0.94013705  0.87444807  0.52371605  1
  C  C552  1  0.94725916  0.86837280  0.68253342  1
  C  C553  1  0.99460308  0.99038186  0.50489512  1
  H  H554  1  0.75427358  0.78123292  0.61467353  1
  H  H555  1  0.75739903  0.95404960  0.74077192  1
  C  C556  1  0.97146780  0.92615490  0.62383636  1
  C  C557  1  0.85346452  0.90247715  0.50210334  1
  C  C558  1  0.76802178  0.66611671  0.70364125  1
  Zn  Zn559  1  0.84707345  0.86063984  0.66194639  1
  C  C560  1  0.81507001  0.63871848  0.68006675  1
  O  O561  1  0.83515919  0.93919518  0.55723185  1
  C  C562  1  0.96849644  0.92036503  0.54763714  1
  O  O563  1  0.83679945  0.56733029  0.70400597  1
  O  O564  1  0.91538117  0.81273786  0.66315706  1
  H  H565  1  0.95989288  0.68469005  0.51186766  1
  O  O566  1  0.83492702  0.70727079  0.63241798  1
  O  O567  1  0.90681195  0.54412294  0.50009293  1
  O  O568  1  0.95687072  0.88579244  0.74653065  1
  C  C569  1  0.75498367  0.58125247  0.50394385  1
  C  C570  1  0.65201538  0.66119193  0.91567461  1
  H  H571  1  0.68972400  0.65709426  0.92102679  1
  C  C572  1  0.63180684  0.73090363  0.86066415  1
  C  C573  1  0.59166707  0.78543115  0.89315623  1
  C  C574  1  0.56345369  0.74182537  0.95506944  1
  H  H575  1  0.58485848  0.86970594  0.87568963  1
  Zn  Zn576  1  0.58494061  0.61477205  0.87600409  1
  H  H577  1  0.69560067  0.60122532  0.83914758  1
  H  H578  1  0.72128649  0.85499222  0.94625055  1
  O  O579  1  0.64155581  0.75415994  0.79182862  1
  H  H580  1  0.52912075  0.91866133  0.95958365  1
  H  H581  1  0.51495361  0.77108281  0.85368792  1
  H  H582  1  0.69487865  0.95105551  0.83184109  1
  C  C583  1  0.70969188  0.64074308  0.79030118  1
  C  C584  1  0.68547550  0.72330369  0.76445713  1
  C  C585  1  0.62380896  0.60064838  0.97307560  1
  C  C586  1  0.72546413  0.92162470  0.98479226  1
  C  C587  1  0.57842499  0.64180630  0.98618832  1
  C  C588  1  0.66276717  0.98391189  0.85427305  1
  C  C589  1  0.62299723  0.97840793  0.81374072  1
  H  H590  1  0.53964652  0.78859005  0.98497432  1
  H  H591  1  0.61946963  0.94605135  0.75727210  1
  Zn  Zn592  1  0.52902971  0.99639796  0.77015937  1
  H  H593  1  0.87462024  0.60669209  0.81148957  1
  O  O594  1  0.83079157  0.89587062  0.77523461  1
  O  O595  1  0.76944788  0.67907236  0.95088293  1
  C  C596  1  0.93900132  0.66249562  0.91469542  1
  Zn  Zn597  1  0.91857920  0.88140435  0.84494311  1
  C  C598  1  0.83615115  0.98601928  0.80397082  1
  C  C599  1  0.93063159  0.55547885  0.88201238  1
  C  C600  1  0.89817247  0.54340864  0.82773833  1
  O  O601  1  0.91045345  0.73403135  0.90253163  1
  C  C602  1  0.97980651  0.96987065  0.95698036  1
  O  O603  1  0.96885624  0.67255178  0.96137168  1
  O  O604  1  0.98387378  0.89080546  0.90858607  1
  H  H605  1  0.77070828  0.54574672  0.78690194  1
  C  C606  1  0.78385564  0.62172560  0.99370732  1
  C  C607  1  0.75211827  0.61123043  0.76465090  1
