# generated using pymatgen
data_Zn3H32C52(NO6)2
_symmetry_space_group_name_H-M   'P 1'
_cell_length_a   13.82947014
_cell_length_b   22.58680703
_cell_length_c   14.39776588
_cell_angle_alpha   90.00000000
_cell_angle_beta   90.00000000
_cell_angle_gamma   90.00000000
_symmetry_Int_Tables_number   1
_chemical_formula_structural   Zn3H32C52(NO6)2
_chemical_formula_sum   'Zn12 H128 C208 N8 O48'
_cell_volume   4497.33759879
_cell_formula_units_Z   4
loop_
 _symmetry_equiv_pos_site_id
 _symmetry_equiv_pos_as_xyz
  1  'x, y, z'
loop_
 _atom_site_type_symbol
 _atom_site_label
 _atom_site_symmetry_multiplicity
 _atom_site_fract_x
 _atom_site_fract_y
 _atom_site_fract_z
 _atom_site_occupancy
  C  C0  1  0.11764528  0.09032628  0.09081612  1
  C  C1  1  0.29406038  0.36769962  0.21156884  1
  C  C2  1  0.37501237  0.32515030  0.20301535  1
  C  C3  1  0.34668218  0.26940910  0.15871970  1
  C  C4  1  0.01399762  0.09035908  0.06970096  1
  C  C5  1  0.25031713  0.26240196  0.10138921  1
  H  H6  1  0.43610693  0.09175296  0.02280463  1
  Zn  Zn7  1  0.32561458  0.34282736  0.06936142  1
  C  C8  1  0.11997413  0.17524069  0.21126565  1
  C  C9  1  0.00020431  0.32319928  0.06664462  1
  C  C10  1  0.18145589  0.31031539  0.09440000  1
  C  C11  1  0.23871937  0.09461678  0.21922463  1
  H  H12  1  0.05976868  0.19690025  0.17409425  1
  C  C13  1  0.09043648  0.29575543  0.04692413  1
  H  H14  1  0.14251831  0.39287766  0.16915079  1
  H  H15  1  0.27167124  0.05263180  0.19443718  1
  C  C16  1  0.20204321  0.36333817  0.15157397  1
  C  C17  1  0.15321860  0.49255052  0.20034353  1
  H  H18  1  0.22306144  0.21708203  0.09235841  1
  C  C19  1  0.48593315  0.18350986  0.01374054  1
  C  C20  1  0.05671978  0.47058640  0.16755991  1
  H  H21  1  0.26470229  0.04948122  0.06117285  1
  H  H22  1  0.39136386  0.22923144  0.17211286  1
  C  C23  1  0.16287583  0.12271750  0.16987997  1
  C  C24  1  0.48791698  0.12634687  0.04519525  1
  O  O25  1  0.46013663  0.46130255  0.02773553  1
  C  C26  1  0.03932259  0.44943122  0.07621171  1
  C  C27  1  0.18450913  0.05322776  0.04173920  1
  C  C28  1  0.47461580  0.33433509  0.23861686  1
  H  H29  1  0.09611470  0.44436850  0.02684358  1
  H  H30  1  0.01433241  0.03289562  0.38433551  1
  C  C31  1  0.18416947  0.01159467  0.36381223  1
  C  C32  1  0.23308439  0.35135544  0.42804261  1
  H  H33  1  0.34126389  0.09195208  0.33599984  1
  O  O34  1  0.23151420  0.23176406  0.46799069  1
  H  H35  1  0.07449380  0.33850358  0.35431348  1
  O  O36  1  0.35197198  0.17561044  0.46193674  1
  C  C37  1  0.23570626  0.16988097  0.33305347  1
  C  C38  1  0.27391479  0.19393202  0.42370482  1
  C  C39  1  0.15719213  0.19941953  0.29141642  1
  H  H40  1  0.13889581  0.24303086  0.31754420  1
  C  C41  1  0.03571765  0.37314298  0.39020951  1
  H  H42  1  0.19396999  0.32512731  0.37507754  1
  H  H43  1  0.28738417  0.39304452  0.27967866  1
  H  H44  1  0.36511724  0.30803369  0.40893709  1
  C  C45  1  0.33327997  0.34351323  0.44830333  1
  C  C46  1  0.18250053  0.02305326  0.46163632  1
  C  C47  1  0.19347521  0.40086140  0.47223588  1
  C  C48  1  0.08763611  0.41050383  0.45264373  1
  H  H49  1  0.15426053  0.04374558  0.31655986  1
  H  H50  1  0.11589035  0.46624573  0.34451846  1
  C  C51  1  0.27980306  0.11565822  0.30157316  1
  C  C52  1  0.17070853  0.48462120  0.29817499  1
  C  C53  1  0.03499053  0.45624405  0.49804811  1
  H  H54  1  0.00665564  0.49095788  0.30826520  1
  H  H55  1  0.15110071  0.06169412  0.49933833  1
  H  H56  1  0.47729618  0.11609669  0.48634526  1
  C  C57  1  0.34311123  0.42792909  0.54739219  1
  C  C58  1  0.12026792  0.32623899  0.63267461  1
  C  C59  1  0.47018304  0.03042622  0.54547428  1
  C  C60  1  0.11438673  0.17890623  0.70841842  1
  Zn  Zn61  1  0.35573525  0.22549746  0.59039108  1
  H  H62  1  0.39644357  0.03975309  0.57579040  1
  O  O63  1  0.31432521  0.30872630  0.67308533  1
  C  C64  1  0.15314143  0.32323047  0.72913174  1
  H  H65  1  0.17197045  0.32359572  0.57498188  1
  C  C66  1  0.26193927  0.11738917  0.67285186  1
  H  H67  1  0.20368807  0.47480394  0.57433559  1
  C  C68  1  0.02249241  0.32918420  0.61632113  1
  O  O69  1  0.29618564  0.06874046  0.65498972  1
  C  C70  1  0.15463045  0.12342168  0.69003225  1
  C  C71  1  0.25948600  0.31221994  0.74113455  1
  C  C72  1  0.32042317  0.49452921  0.73161181  1
  H  H73  1  0.38536551  0.45788997  0.59312348  1
  H  H74  1  0.03936230  0.42679866  0.74706230  1
  O  O75  1  0.31305468  0.16397392  0.68522898  1
  H  H76  1  0.13134472  0.02901376  0.66212657  1
  C  C77  1  0.09546090  0.07188156  0.68116868  1
  H  H78  1  0.15684505  0.21774375  0.72306289  1
  H  H79  1  0.06930714  0.48500244  0.54993331  1
  C  C80  1  0.22282944  0.48159201  0.73992419  1
  C  C81  1  0.01254200  0.18168797  0.71799403  1
  C  C82  1  0.24588638  0.43952031  0.53523309  1
  C  C83  1  0.38995533  0.37835653  0.50513248  1
  C  C84  1  0.49778414  0.37308383  0.50886064  1
  H  H85  1  0.13861478  0.22186878  0.95654380  1
  C  C86  1  0.08109961  0.32516005  0.79907566  1
  H  H87  1  0.42950545  0.19856972  0.96008064  1
  C  C88  1  0.14448330  0.02064719  0.96836414  1
  O  O89  1  0.47868779  0.29725814  0.94636533  1
  C  C90  1  0.04390199  0.02126254  0.94802923  1
  Zn  Zn91  1  0.44813180  0.30675359  0.79846432  1
  H  H92  1  0.11298283  0.32635246  0.86761577  1
  O  O93  1  0.29469430  0.31431158  0.81997142  1
  O  O94  1  0.32709554  0.42826568  0.96274944  1
  C  C95  1  0.37937258  0.46802993  0.98553150  1
  O  O96  1  0.36742046  0.02152677  0.93537952  1
  H  H97  1  0.37759587  0.46840360  0.76847315  1
  H  H98  1  0.19510031  0.44133418  0.77396058  1
  C  C99  1  0.07564543  0.24913384  0.98004043  1
  C  C100  1  0.24621147  0.64083091  0.14992327  1
  H  H101  1  0.02776071  0.90268596  0.06391408  1
  H  H102  1  0.36308654  0.92158688  0.18648080  1
  C  C103  1  0.39016008  0.70217149  0.12503923  1
  C  C104  1  0.33175293  0.75226629  0.10939906  1
  C  C105  1  0.28627522  0.91562748  0.16817699  1
  C  C106  1  0.34694849  0.64682888  0.14247087  1
  H  H107  1  0.21535520  0.59913798  0.17479305  1
  C  C108  1  0.08108606  0.68734358  0.13247882  1
  H  H109  1  0.39522305  0.60937915  0.16191051  1
  C  C110  1  0.23308566  0.50765334  0.13833932  1
  C  C111  1  0.02296565  0.73814076  0.11937352  1
  H  H112  1  0.19014652  0.79107908  0.10311916  1
  C  C113  1  0.11593021  0.93183893  0.19102530  1
  H  H114  1  0.05583438  0.78051162  0.10117630  1
  C  C115  1  0.18857450  0.69229106  0.12772023  1
  C  C116  1  0.23127121  0.74754488  0.10675472  1
  H  H117  1  0.36439057  0.79597526  0.09693782  1
  C  C118  1  0.09806390  0.90835312  0.10304225  1
  C  C119  1  0.26166500  0.89474338  0.08177391  1
  H  H120  1  0.08685148  0.59123010  0.15771774  1
  C  C121  1  0.49956562  0.70254809  0.11291243  1
  H  H122  1  0.30882426  0.88005303  0.02713815  1
  C  C123  1  0.04009490  0.63032966  0.15727082  1
  H  H124  1  0.38483184  0.53802932  0.13942518  1
  N  N125  1  0.16949629  0.89322217  0.04768141  1
  H  H126  1  0.22292079  0.50702218  0.06157418  1
  C  C127  1  0.31854656  0.52451672  0.17897228  1
  H  H128  1  0.05414506  0.93743505  0.24142865  1
  C  C129  1  0.21069363  0.93768701  0.22723311  1
  O  O130  1  0.49406485  0.83891996  0.24421923  1
  H  H131  1  0.49692368  0.55160475  0.01041969  1
  O  O132  1  0.49145691  0.69450366  0.35212852  1
  C  C133  1  0.26461146  0.91609069  0.38951700  1
  H  H134  1  0.18268223  0.65940193  0.47904196  1
  H  H135  1  0.26797957  0.50485632  0.41004928  1
  H  H136  1  0.33132648  0.69232874  0.28477824  1
  C  C137  1  0.15112996  0.76581066  0.40638609  1
  C  C138  1  0.09338443  0.60304522  0.38796029  1
  H  H139  1  0.14895692  0.58280632  0.34257129  1
  C  C140  1  0.25592932  0.50716955  0.33379648  1
  C  C141  1  0.35035333  0.74331017  0.41118486  1
  H  H142  1  0.14564511  0.71106364  0.28055934  1
  C  C143  1  0.04877185  0.78216567  0.39863758  1
  C  C144  1  0.29395843  0.71824570  0.33703611  1
  C  C145  1  0.20618947  0.79207984  0.48031911  1
  C  C146  1  0.45560151  0.72812118  0.41122886  1
  C  C147  1  0.30602491  0.77933079  0.47954502  1
  C  C148  1  0.19516684  0.72803211  0.33673089  1
  C  C149  1  0.10764804  0.64178149  0.46269015  1
  C  C150  1  0.42491202  0.54049625  0.32024033  1
  N  N151  1  0.00323045  0.58603977  0.36198019  1
  C  C152  1  0.22177673  0.95834304  0.32782331  1
  H  H153  1  0.30427122  0.87606368  0.36708990  1
  C  C154  1  0.33349685  0.52296237  0.27640932  1
  H  H155  1  0.00837783  0.70926173  0.30314396  1
  O  O156  1  0.44289946  0.53045872  0.40808697  1
  C  C157  1  0.49930806  0.88335394  0.29215754  1
  O  O158  1  0.48976625  0.55902183  0.26946135  1
  O  O159  1  0.48100513  0.88100851  0.37900804  1
  C  C160  1  0.00671515  0.83272433  0.44686725  1
  H  H161  1  0.04990229  0.86560244  0.48447428  1
  C  C162  1  0.25917931  0.93476947  0.48293144  1
  N  N163  1  0.22471450  0.98652740  0.51820720  1
  H  H164  1  0.17652115  0.81834298  0.53505846  1
  C  C165  1  0.04924023  0.71288129  0.59045397  1
  H  H166  1  0.35622117  0.79663597  0.53179004  1
  O  O167  1  0.38966692  0.92892947  0.66039037  1
  C  C168  1  0.19546400  0.56794479  0.64369411  1
  H  H169  1  0.37342239  0.97096520  0.63514881  1
  C  C170  1  0.00659465  0.80270543  0.67685103  1
  C  C171  1  0.14246678  0.71584510  0.63655508  1
  H  H172  1  0.28358961  0.91059357  0.54606604  1
  N  N173  1  0.08964895  0.80275124  0.72511516  1
  C  C174  1  0.15808322  0.76076445  0.69989794  1
  H  H175  1  0.19826675  0.68334013  0.62138773  1
  C  C176  1  0.29560739  0.57507539  0.63041823  1
  H  H177  1  0.33230148  0.61285764  0.60078002  1
  H  H178  1  0.14433932  0.59523297  0.60479834  1
  N  N179  1  0.35516332  0.54099067  0.67943833  1
  C  C180  1  0.04518147  0.52117003  0.70559379  1
  C  C181  1  0.03027762  0.66593596  0.51763567  1
  H  H182  1  0.02312861  0.61404764  0.67613541  1
  C  C183  1  0.15775130  0.52250363  0.70062735  1
  C  C184  1  0.47891220  0.92487666  0.61657025  1
  H  H185  1  0.22048289  0.76374599  0.74411401  1
  C  C186  1  0.26458033  0.60495711  0.87376943  1
  H  H187  1  0.21869305  0.51285870  0.89074260  1
  C  C188  1  0.20176815  0.79434326  0.88682775  1
  H  H189  1  0.45924153  0.73276538  0.84278360  1
  H  H190  1  0.20445843  0.61994283  0.82847954  1
  C  C191  1  0.41295498  0.63115689  0.95975045  1
  Zn  Zn192  1  0.14792425  0.88017654  0.85775418  1
  C  C193  1  0.33266379  0.64877296  0.90576200  1
  C  C194  1  0.38671373  0.75060499  0.85347185  1
  C  C195  1  0.21802820  0.73677680  0.90998192  1
  C  C196  1  0.27381757  0.54689569  0.90666821  1
  H  H197  1  0.16380285  0.70674131  0.94120377  1
  C  C198  1  0.31258874  0.71429369  0.89444878  1
  C  C199  1  0.27451537  0.82857253  0.84876858  1
  C  C200  1  0.35734507  0.53146656  0.95561988  1
  O  O201  1  0.06824683  0.95553239  0.81927047  1
  C  C202  1  0.43309093  0.57164554  0.97634515  1
  C  C203  1  0.37315978  0.81122468  0.83570543  1
  C  C204  1  0.39481139  0.97342988  0.94558027  1
  H  H205  1  0.43221321  0.84252627  0.81413920  1
  O  O206  1  0.42651001  0.92577999  0.95299831  1
  H  H207  1  0.46280825  0.66733452  0.98467900  1
  C  C208  1  0.00587027  0.98469920  0.86972896  1
  H  H209  1  0.19596838  0.99640826  0.92235421  1
  H  H210  1  0.82878380  0.14767110  0.12079012  1
  C  C211  1  0.91363216  0.30897075  0.03057987  1
  C  C212  1  0.61426369  0.20958207  0.11815862  1
  H  H213  1  0.96898654  0.12168847  0.10989405  1
  C  C214  1  0.94255983  0.44193719  0.05150772  1
  O  O215  1  0.77590881  0.29776484  0.21936159  1
  C  C216  1  0.61184297  0.15521498  0.15847358  1
  C  C217  1  0.75320568  0.01144381  0.06052732  1
  O  O218  1  0.69961287  0.44613893  0.15559885  1
  H  H219  1  0.66445736  0.24445220  0.14337422  1
  C  C220  1  0.79813572  0.11184379  0.08254404  1
  C  C221  1  0.76459503  0.44134339  0.09379364  1
  C  C222  1  0.83790230  0.03070162  0.21245970  1
  C  C223  1  0.79635050  0.05386042  0.12126357  1
  C  C224  1  0.86830594  0.45093876  0.11924508  1
  H  H225  1  0.84342899  0.33262557  0.05336164  1
  C  C226  1  0.55036819  0.22808408  0.04556230  1
  C  C227  1  0.54483824  0.11356157  0.12567386  1
  H  H228  1  0.65977473  0.14703586  0.21970387  1
  C  C229  1  0.88648403  0.46440669  0.21595901  1
  C  C230  1  0.53436254  0.05288104  0.17194578  1
  H  H231  1  0.54803710  0.00666096  0.03759743  1
  C  C232  1  0.53804317  0.00221971  0.11334180  1
  C  C233  1  0.98332117  0.47454452  0.23740170  1
  O  O234  1  0.59907097  0.32972834  0.03026525  1
  O  O235  1  0.52174716  0.38257392  0.22757401  1
  H  H236  1  0.99878747  0.35461486  0.12654814  1
  C  C237  1  0.93302712  0.04712873  0.24848171  1
  H  H238  1  0.98578041  0.07716939  0.21596834  1
  C  C239  1  0.81694843  0.25223588  0.24982616  1
  Zn  Zn240  1  0.66844728  0.37699543  0.24265092  1
  O  O241  1  0.90343545  0.24418151  0.23479359  1
  O  O242  1  0.73917184  0.43028160  0.01235151  1
  C  C243  1  0.54553906  0.28901190  0.00915266  1
  C  C244  1  0.66444578  0.01337857  0.47991476  1
  H  H245  1  0.62619443  0.25556205  0.32021610  1
  O  O246  1  0.51942289  0.28850459  0.25893313  1
  C  C247  1  0.76696447  0.11503509  0.38658606  1
  C  C248  1  0.78070127  0.43286317  0.40816593  1
  C  C249  1  0.66175674  0.21369452  0.34213254  1
  C  C250  1  0.88568377  0.42827102  0.43003065  1
  C  C251  1  0.81014014  0.15550108  0.32870801  1
  C  C252  1  0.61307949  0.16658888  0.38558161  1
  H  H253  1  0.88441292  0.14748543  0.30253965  1
  H  H254  1  0.80862572  0.07501387  0.39839477  1
  O  O255  1  0.74184745  0.39049891  0.36512605  1
  Zn  Zn256  1  0.57711572  0.49462777  0.45710269  1
  C  C257  1  0.75799948  0.20659044  0.30935159  1
  C  C258  1  0.93412044  0.38178291  0.38481802  1
  C  C259  1  0.66787282  0.11455122  0.41212983  1
  H  H260  1  0.88695316  0.35220132  0.34433768  1
  H  H261  1  0.53426067  0.17397059  0.40199682  1
  O  O262  1  0.73008578  0.47703447  0.42725665  1
  C  C263  1  0.95112070  0.02399449  0.33678844  1
  H  H264  1  0.74069837  0.00679074  0.45723160  1
  O  O265  1  0.53921384  0.32906055  0.47975312  1
  H  H266  1  0.53191152  0.09046309  0.30937587  1
  C  C267  1  0.61408173  0.06707971  0.46156641  1
  C  C268  1  0.93549691  0.46974467  0.48531182  1
  C  C269  1  0.52679354  0.04852535  0.26944872  1
  C  C270  1  0.51462787  0.07331177  0.49461821  1
  H  H271  1  0.82565530  0.47502716  0.26280303  1
  C  C272  1  0.79246779  0.12686251  0.62606004  1
  C  C273  1  0.84824074  0.12942525  0.71565671  1
  C  C274  1  0.99831005  0.46765220  0.72824692  1
  C  C275  1  0.94729406  0.32652004  0.68830390  1
  C  C276  1  0.84299243  0.32986706  0.66960021  1
  O  O277  1  0.54694489  0.41855996  0.53547063  1
  H  H278  1  0.95029784  0.03247173  0.68761187  1
  C  C279  1  0.80647456  0.37567710  0.60525777  1
  H  H280  1  0.83596793  0.11859137  0.55947646  1
  Zn  Zn281  1  0.69604412  0.31730657  0.62015105  1
  H  H282  1  0.99798036  0.32896910  0.54054053  1
  C  C283  1  0.95375918  0.13123486  0.70694544  1
  H  H284  1  0.70041485  0.45655857  0.62877711  1
  H  H285  1  0.65702280  0.16357423  0.54297192  1
  C  C286  1  0.64167425  0.16963780  0.69268186  1
  C  C287  1  0.69255735  0.15518734  0.61227116  1
  H  H288  1  0.86346471  0.39735700  0.56260249  1
  C  C289  1  0.71276293  0.40705319  0.64219921  1
  C  C290  1  0.55232279  0.20806279  0.68344878  1
  C  C291  1  0.65758834  0.38331212  0.71916952  1
  O  O292  1  0.50034348  0.39879557  0.74645133  1
  C  C293  1  0.78530432  0.30079152  0.74070039  1
  Zn  Zn294  1  0.70569582  0.09214556  0.73456962  1
  O  O295  1  0.51169393  0.20441212  0.60885817  1
  H  H296  1  0.98075588  0.22341633  0.73607690  1
  C  C297  1  0.89678559  0.46515807  0.73015430  1
  C  C298  1  0.99641613  0.07269273  0.69237902  1
  C  C299  1  0.68536184  0.32988755  0.76823189  1
  H  H300  1  0.77751500  0.16437845  0.95237291  1
  C  C301  1  0.79809094  0.16468296  0.78676633  1
  N  N302  1  0.72483801  0.08159009  0.93862750  1
  H  H303  1  0.84528515  0.18253551  0.84986268  1
  Zn  Zn304  1  0.58767888  0.42321806  0.98080671  1
  H  H305  1  0.65450181  0.20935640  0.83243076  1
  H  H306  1  0.98968259  0.19517477  0.89169991  1
  H  H307  1  0.65990126  0.31692460  0.83638316  1
  C  C308  1  0.99200230  0.23627427  0.93408167  1
  O  O309  1  0.59492119  0.44927645  0.83931122  1
  H  H310  1  0.82192506  0.26992674  0.79096491  1
  O  O311  1  0.81723028  0.25474523  0.92876412  1
  H  H312  1  0.92756466  0.31773666  0.83589011  1
  C  C313  1  0.57757981  0.41886134  0.76792381  1
  C  C314  1  0.69030633  0.17977006  0.78236181  1
  H  H315  1  0.67841516  0.00241636  0.92100240  1
  O  O316  1  0.52519381  0.23662513  0.75384132  1
  H  H317  1  0.85027506  0.42997994  0.75102628  1
  C  C318  1  0.71047536  0.02917633  0.97929854  1
  C  C319  1  0.89670920  0.26364694  0.95935730  1
  C  C320  1  0.98300743  0.32207054  0.78056535  1
  H  H321  1  0.92625082  0.42700350  0.97910740  1
  C  C322  1  0.76340741  0.12417900  0.99217037  1
  H  H323  1  0.89980577  0.05541234  0.98150202  1
  C  C324  1  0.97930929  0.05548740  0.99942142  1
  H  H325  1  0.88015932  0.77019284  0.11384303  1
  Zn  Zn326  1  0.62416509  0.78696908  0.21233813  1
  H  H327  1  0.91082736  0.58122746  0.19312768  1
  O  O328  1  0.84992550  0.87263782  0.11198897  1
  C  C329  1  0.92403955  0.73001180  0.13095093  1
  O  O330  1  0.69904024  0.85629747  0.14385226  1
  C  C331  1  0.88591264  0.67435728  0.15833008  1
  H  H332  1  0.74543361  0.96336683  0.08246084  1
  H  H333  1  0.52355588  0.90604631  0.12425893  1
  C  C334  1  0.94278748  0.62311236  0.17079594  1
  O  O335  1  0.74294871  0.72286749  0.16755861  1
  C  C336  1  0.77556259  0.84721643  0.09161889  1
  C  C337  1  0.77964441  0.67397597  0.17988378  1
  O  O338  1  0.73470137  0.62923054  0.21467669  1
  O  O339  1  0.54401609  0.65530164  0.13302956  1
  O  O340  1  0.54279618  0.75015545  0.10356115  1
  C  C341  1  0.52447437  0.94833702  0.16118514  1
  H  H342  1  0.70997077  0.97294312  0.21933168  1
  C  C343  1  0.77010769  0.81486646  0.00007773  1
  H  H344  1  0.61046076  0.81233251  0.01059020  1
  C  C345  1  0.51226858  0.94565120  0.25745634  1
  C  C346  1  0.88497458  0.75346165  0.35596104  1
  N  N347  1  0.89756190  0.98035852  0.37611330  1
  O  O348  1  0.69913277  0.84752884  0.44782111  1
  C  C349  1  0.84825169  0.80158068  0.40576732  1
  H  H350  1  0.86153776  0.58150009  0.39223914  1
  Zn  Zn351  1  0.55702684  0.83430146  0.48335908  1
  C  C352  1  0.90929588  0.84359837  0.45292021  1
  H  H353  1  0.78190143  0.92731802  0.37865493  1
  C  C354  1  0.81427453  0.96167279  0.33516067  1
  H  H355  1  0.83429197  0.72313740  0.32428008  1
  Zn  Zn356  1  0.59175456  0.63009627  0.27922009  1
  H  H357  1  0.73556041  0.73148726  0.49413500  1
  O  O358  1  0.68788723  0.77311000  0.35203783  1
  C  C359  1  0.93136128  0.60347397  0.41691192  1
  C  C360  1  0.73998331  0.80736736  0.40134398  1
  O  O361  1  0.66589818  0.63786039  0.41971297  1
  C  C362  1  0.98277665  0.74457304  0.34931947  1
  C  C363  1  0.51627954  0.99675436  0.31472615  1
  O  O364  1  0.50635599  0.74799048  0.47750038  1
  H  H365  1  0.50820881  0.99537783  0.39158129  1
  C  C366  1  0.94003015  0.64072340  0.49505456  1
  H  H367  1  0.87791655  0.88442955  0.48406848  1
  C  C368  1  0.77831655  0.98671486  0.25247808  1
  C  C369  1  0.97966210  0.75372324  0.62102029  1
  C  C370  1  0.98738515  0.57196843  0.69186140  1
  H  H371  1  0.87337668  0.65018371  0.53712107  1
  H  H372  1  0.65541185  0.92776863  0.54114095  1
  H  H373  1  0.90805710  0.75535157  0.59102281  1
  H  H374  1  0.77798615  0.79063425  0.64010480  1
  C  C375  1  0.85520750  0.93237548  0.62179216  1
  C  C376  1  0.73609179  0.72227053  0.73840538  1
  C  C377  1  0.88539133  0.56617243  0.69059258  1
  C  C378  1  0.72388575  0.71385354  0.56958049  1
  C  C379  1  0.74920539  0.74574870  0.64788235  1
  C  C380  1  0.68416307  0.65644298  0.58415584  1
  H  H381  1  0.63168558  0.58900910  0.67907125  1
  O  O382  1  0.81117290  0.90257562  0.66086284  1
  C  C383  1  0.61870841  0.96918185  0.52953820  1
  C  C384  1  0.67080632  0.63154039  0.67299610  1
  H  H385  1  0.95539018  0.83990147  0.69239475  1
  C  C386  1  0.52191619  0.97505958  0.56356695  1
  O  O387  1  0.61586252  0.57338684  0.52216220  1
  H  H388  1  0.82047343  0.59870279  0.67299827  1
  N  N389  1  0.84422843  0.51301742  0.71131154  1
  O  O390  1  0.51913396  0.87658990  0.62717327  1
  H  H391  1  0.90118283  0.50829620  0.52029597  1
  C  C392  1  0.65975190  0.61951897  0.50013592  1
  C  C393  1  0.66417629  0.77216829  0.88002481  1
  C  C394  1  0.67612833  0.80107205  0.96565873  1
  O  O395  1  0.92143718  0.98226809  0.84670620  1
  H  H396  1  0.90214817  0.75609959  0.81925119  1
  C  C397  1  0.85211008  0.80326413  0.94379477  1
  H  H398  1  0.59331490  0.76167618  0.85030277  1
  H  H399  1  0.92087412  0.82152406  0.96512346  1
  C  C400  1  0.74792023  0.75422598  0.83116456  1
  H  H401  1  0.69088527  0.64540615  0.82244235  1
  C  C402  1  0.84172215  0.76901859  0.86342018  1
  C  C403  1  0.69149618  0.66416821  0.75281744  1
