# generated using pymatgen
data_ZnH2C7NO4
_symmetry_space_group_name_H-M   'P 1'
_cell_length_a   14.24570196
_cell_length_b   14.09072766
_cell_length_c   21.61169907
_cell_angle_alpha   90.00000000
_cell_angle_beta   90.00000000
_cell_angle_gamma   90.00000000
_symmetry_Int_Tables_number   1
_chemical_formula_structural   ZnH2C7NO4
_chemical_formula_sum   'Zn16 H32 C112 N16 O64'
_cell_volume   4338.16620364
_cell_formula_units_Z   16
loop_
 _symmetry_equiv_pos_site_id
 _symmetry_equiv_pos_as_xyz
  1  'x, y, z'
loop_
 _atom_site_type_symbol
 _atom_site_label
 _atom_site_symmetry_multiplicity
 _atom_site_fract_x
 _atom_site_fract_y
 _atom_site_fract_z
 _atom_site_occupancy
  C  C0  1  0.04443215  0.43078663  0.07035980  1
  Zn  Zn1  1  0.25762186  0.26136925  0.23343980  1
  O  O2  1  0.33067138  0.18729636  0.16346081  1
  C  C3  1  0.39351098  0.13074329  0.17969214  1
  O  O4  1  0.17912936  0.33487052  0.15629191  1
  C  C5  1  0.11454844  0.38726436  0.17703654  1
  O  O6  1  0.11332780  0.39984309  0.23451303  1
  O  O7  1  0.40564170  0.11685968  0.23641433  1
  C  C8  1  0.44485003  0.07008424  0.13381654  1
  H  H9  1  0.38990409  0.13407267  0.04998581  1
  H  H10  1  0.10128866  0.39298192  0.04569422  1
  C  C11  1  0.04332703  0.43435654  0.13636784  1
  C  C12  1  0.43561368  0.07925560  0.06831719  1
  C  C13  1  0.00399716  0.00178348  0.03875528  1
  N  N14  1  0.00513250  0.00836041  0.16950992  1
  C  C15  1  0.49522464  0.01944138  0.03276094  1
  O  O16  1  0.36197531  0.36369280  0.26789976  1
  H  H17  1  0.12715594  0.17174324  0.45875036  1
  H  H18  1  0.37331340  0.35504146  0.46039176  1
  C  C19  1  0.18275599  0.21401551  0.43504497  1
  C  C20  1  0.18760093  0.21035209  0.37003677  1
  C  C21  1  0.13284546  0.14949633  0.32414940  1
  C  C22  1  0.31640310  0.31987136  0.43303515  1
  C  C23  1  0.31109533  0.31961449  0.36810317  1
  C  C24  1  0.38136216  0.36895369  0.32426049  1
  C  C25  1  0.25007114  0.26768240  0.46772408  1
  N  N26  1  0.24567866  0.26870766  0.33741704  1
  O  O27  1  0.45149211  0.41199126  0.34196897  1
  O  O28  1  0.06448211  0.10193708  0.33825168  1
  O  O29  1  0.16103600  0.15547560  0.26846703  1
  O  O30  1  0.42571290  0.43085852  0.65411694  1
  H  H31  1  0.35256382  0.36522097  0.54580304  1
  H  H32  1  0.13453537  0.13936911  0.54543208  1
  C  C33  1  0.30527454  0.31409852  0.56870402  1
  C  C34  1  0.30343328  0.30923801  0.63410437  1
  C  C35  1  0.36326957  0.37364742  0.67572445  1
  C  C36  1  0.18298982  0.18974308  0.56884583  1
  C  C37  1  0.18653479  0.19433728  0.63232279  1
  C  C38  1  0.13695649  0.13041649  0.68173276  1
  C  C39  1  0.24656432  0.25003112  0.53628439  1
  N  N40  1  0.24171176  0.25637533  0.66556641  1
  O  O41  1  0.35051502  0.37368914  0.73246548  1
  O  O42  1  0.07995512  0.06645881  0.66593384  1
  O  O43  1  0.14272101  0.14636567  0.73879620  1
  Zn  Zn44  1  0.23575163  0.26646584  0.76727821  1
  C  C45  1  0.45293796  0.07919065  0.86033348  1
  O  O46  1  0.33278453  0.19640716  0.82987528  1
  H  H47  1  0.07799455  0.37473876  0.95815467  1
  C  C48  1  0.10225627  0.37910660  0.82348026  1
  C  C49  1  0.39360861  0.13523207  0.81400288  1
  C  C50  1  0.04163993  0.43588417  0.86923203  1
  O  O51  1  0.09992864  0.39939379  0.76746822  1
  O  O52  1  0.15055026  0.31197269  0.84118776  1
  C  C53  1  0.44770738  0.09204495  0.92388420  1
  H  H54  1  0.39865859  0.14728220  0.94109494  1
  O  O55  1  0.40573504  0.11810004  0.75994496  1
  C  C56  1  0.03511618  0.42992098  0.93297788  1
  C  C57  1  0.00163862  0.00340493  0.96915259  1
  N  N58  1  0.00785064  0.00195548  0.83970051  1
  C  C59  1  0.49107274  0.02329532  0.96303393  1
  O  O60  1  0.39923651  0.58267880  0.23276675  1
  C  C61  1  0.06292327  0.94690723  0.13944290  1
  O  O62  1  0.17116444  0.82144265  0.16677632  1
  C  C63  1  0.45360833  0.54871221  0.13140055  1
  Zn  Zn64  1  0.27000304  0.74150705  0.22352433  1
  C  C65  1  0.11308819  0.88174640  0.18522146  1
  O  O66  1  0.10356232  0.89836488  0.24163874  1
  C  C67  1  0.39037392  0.60124127  0.17707910  1
  O  O68  1  0.32429194  0.65505355  0.15899218  1
  H  H69  1  0.11711728  0.89868396  0.05345740  1
  H  H70  1  0.40397741  0.60370893  0.04261710  1
  C  C71  1  0.45800174  0.56349384  0.06696364  1
  C  C72  1  0.06345791  0.94367778  0.07413725  1
  H  H73  1  0.13648021  0.65508194  0.44729468  1
  H  H74  1  0.38343009  0.84423052  0.45140958  1
  O  O75  1  0.37132495  0.85078801  0.26541827  1
  C  C76  1  0.19150555  0.69972751  0.42850780  1
  C  C77  1  0.19884803  0.69966641  0.36335216  1
  C  C78  1  0.13676628  0.63959499  0.32179559  1
  C  C79  1  0.32071736  0.81531755  0.42983367  1
  C  C80  1  0.31457714  0.81498838  0.36621366  1
  C  C81  1  0.38187842  0.86518232  0.32135833  1
  C  C82  1  0.25263076  0.75820087  0.46301625  1
  N  N83  1  0.25137986  0.76103468  0.33108527  1
  O  O84  1  0.06950433  0.58425556  0.34016928  1
  O  O85  1  0.44311318  0.91713855  0.34107276  1
  O  O86  1  0.15463964  0.63643626  0.26584303  1
  O  O87  1  0.41157798  0.92844332  0.66641576  1
  H  H88  1  0.16344934  0.62088998  0.53719640  1
  H  H89  1  0.33784397  0.87543341  0.55050901  1
  C  C90  1  0.29763844  0.82060886  0.57059024  1
  C  C91  1  0.29549508  0.80852069  0.63363899  1
  C  C92  1  0.35442322  0.86412014  0.67949094  1
  C  C93  1  0.19593060  0.67909576  0.56418011  1
  C  C94  1  0.19541104  0.67483112  0.62834904  1
  C  C95  1  0.13964728  0.60636228  0.66749341  1
  C  C96  1  0.24654299  0.75396958  0.53377640  1
  N  N97  1  0.23971661  0.74311304  0.66479281  1
  O  O98  1  0.13770721  0.62031788  0.72533714  1
  O  O99  1  0.09248571  0.53863399  0.64705894  1
  O  O100  1  0.34108796  0.83818321  0.73391872  1
  Zn  Zn101  1  0.49054070  0.51210639  0.72822344  1
  C  C102  1  0.06512306  0.94277146  0.87066161  1
  C  C103  1  0.43974546  0.56309224  0.86658898  1
  O  O104  1  0.32378900  0.68552226  0.84362349  1
  C  C105  1  0.11829114  0.87736316  0.82550567  1
  H  H106  1  0.40969960  0.62036252  0.95841722  1
  C  C107  1  0.37675801  0.62111368  0.82339260  1
  O  O108  1  0.10912567  0.88978587  0.76749162  1
  O  O109  1  0.17048995  0.81394062  0.84371262  1
  O  O110  1  0.38195222  0.60489180  0.76635191  1
  H  H111  1  0.11922749  0.90644589  0.96120455  1
  Zn  Zn112  1  0.23448614  0.73401627  0.76597600  1
  C  C113  1  0.44626898  0.56900749  0.93071532  1
  C  C114  1  0.06859413  0.94863443  0.93534369  1
  N  N115  1  0.49633772  0.50477708  0.83099292  1
  H  H116  1  0.61874555  0.39298755  0.03639332  1
  O  O117  1  0.81050849  0.15764543  0.15572527  1
  C  C118  1  0.87017413  0.10852607  0.18123645  1
  C  C119  1  0.58319664  0.44509798  0.12639876  1
  O  O120  1  0.70642391  0.33248129  0.14495773  1
  C  C121  1  0.64925027  0.39025254  0.16749593  1
  H  H122  1  0.87160491  0.08629640  0.04830780  1
  C  C123  1  0.93277250  0.05065821  0.07190438  1
  C  C124  1  0.94195876  0.05420768  0.13656668  1
  O  O125  1  0.88402332  0.10155887  0.23588233  1
  C  C126  1  0.57802494  0.44579215  0.06271325  1
  Zn  Zn127  1  0.76213405  0.25429284  0.22813545  1
  O  O128  1  0.63566749  0.39662901  0.22423784  1
  N  N129  1  0.51270200  0.48952790  0.16164940  1
  N  N130  1  0.50601216  0.00863585  0.16394025  1
  N  N131  1  0.98375371  0.48489332  0.17270691  1
  C  C132  1  0.97980540  0.48490598  0.03492423  1
  O  O133  1  0.59963300  0.05956632  0.33646827  1
  H  H134  1  0.64988553  0.13194136  0.45330023  1
  H  H135  1  0.85918936  0.36276850  0.45845226  1
  C  C136  1  0.69083044  0.18641847  0.43096308  1
  C  C137  1  0.69652633  0.19249541  0.36677249  1
  C  C138  1  0.64738976  0.13227371  0.32056395  1
  C  C139  1  0.81352369  0.31241889  0.43679447  1
  C  C140  1  0.80675994  0.30951467  0.37247023  1
  C  C141  1  0.86948519  0.36852412  0.32797678  1
  C  C142  1  0.74238752  0.25411931  0.46623256  1
  N  N143  1  0.74417251  0.26254928  0.33497330  1
  O  O144  1  0.86836875  0.36192476  0.27210693  1
  O  O145  1  0.93567973  0.41623103  0.35066685  1
  O  O146  1  0.65831416  0.15382135  0.26434791  1
  Zn  Zn147  1  0.99731309  0.49640826  0.28041059  1
  Zn  Zn148  1  0.52190277  0.48188466  0.26944693  1
  Zn  Zn149  1  0.99846439  0.00921678  0.27167494  1
  O  O150  1  0.59263537  0.05101925  0.64867394  1
  C  C151  1  0.84544056  0.38203522  0.68152929  1
  H  H152  1  0.65059746  0.13022881  0.55370392  1
  C  C153  1  0.79988234  0.31888256  0.57280731  1
  C  C154  1  0.79746984  0.31376239  0.63714103  1
  H  H155  1  0.83302738  0.38174280  0.55277763  1
  C  C156  1  0.69629946  0.18491525  0.57389166  1
  C  C157  1  0.69856553  0.18501822  0.63895493  1
  C  C158  1  0.63991059  0.11501773  0.67507700  1
  C  C159  1  0.74710839  0.25347122  0.53685170  1
  N  N160  1  0.75695931  0.24242142  0.67323661  1
  O  O161  1  0.63825694  0.12140095  0.73348632  1
  O  O162  1  0.89265975  0.45090142  0.66567175  1
  O  O163  1  0.83967931  0.35878877  0.73672959  1
  H  H164  1  0.61199435  0.39339625  0.94983339  1
  C  C165  1  0.60732043  0.37268380  0.82226942  1
  H  H166  1  0.87557032  0.09274051  0.95842867  1
  O  O167  1  0.80642514  0.15404403  0.84798455  1
  C  C168  1  0.55413662  0.44078659  0.86296641  1
  C  C169  1  0.86813821  0.10106526  0.82838680  1
  O  O170  1  0.60269612  0.38106507  0.76488137  1
  O  O171  1  0.65577305  0.30462714  0.84386029  1
  O  O172  1  0.88176440  0.09208693  0.77202872  1
  Zn  Zn173  1  0.74550920  0.23183358  0.77564291  1
  C  C174  1  0.93729072  0.05039513  0.87041744  1
  C  C175  1  0.56721740  0.44548064  0.92664318  1
  C  C176  1  0.93237017  0.05293210  0.93511052  1
  N  N177  1  0.51062978  0.01329699  0.83209197  1
  C  C178  1  0.97092364  0.48952645  0.96647828  1
  O  O179  1  0.60227141  0.88958598  0.22607187  1
  C  C180  1  0.56221313  0.96152791  0.06383777  1
  O  O181  1  0.67227186  0.82490251  0.14946315  1
  H  H182  1  0.60627811  0.91404819  0.03517001  1
  O  O183  1  0.82777797  0.68686653  0.15669325  1
  C  C184  1  0.62046447  0.88692221  0.16915631  1
  Zn  Zn185  1  0.75430539  0.76510679  0.22692098  1
  H  H186  1  0.87142765  0.59456035  0.05544211  1
  C  C187  1  0.87421441  0.61830556  0.17844141  1
  C  C188  1  0.56667662  0.95500063  0.12832745  1
  C  C189  1  0.92889709  0.54914440  0.13898621  1
  O  O190  1  0.87951133  0.60646137  0.23584649  1
  C  C191  1  0.92539285  0.54377121  0.07503355  1
  C  C192  1  0.51602742  0.50531904  0.02913531  1
  H  H193  1  0.66891436  0.62660159  0.45158616  1
  H  H194  1  0.87278250  0.84979224  0.45360375  1
  O  O195  1  0.58909510  0.57113656  0.34599414  1
  C  C196  1  0.70632500  0.68188655  0.42629111  1
  C  C197  1  0.70399134  0.69139420  0.36219813  1
  C  C198  1  0.64690275  0.62656811  0.32192174  1
  C  C199  1  0.81829234  0.80846281  0.42931460  1
  C  C200  1  0.81525353  0.81203753  0.36465676  1
  C  C201  1  0.86965627  0.87912737  0.32254530  1
  C  C202  1  0.76467632  0.74248773  0.46253978  1
  N  N203  1  0.75770433  0.75678580  0.32900666  1
  O  O204  1  0.85992027  0.87115543  0.26518169  1
  O  O205  1  0.92767140  0.93917217  0.33871049  1
  O  O206  1  0.65705874  0.63245340  0.26506914  1
  Zn  Zn207  1  0.50534428  0.99611344  0.26721543  1
  H  H208  1  0.86393573  0.84744203  0.54267022  1
  O  O209  1  0.92030513  0.92424057  0.65348183  1
  O  O210  1  0.56052504  0.58156850  0.65333452  1
  C  C211  1  0.81246696  0.79909353  0.56771786  1
  C  C212  1  0.80174609  0.79744250  0.63163483  1
  C  C213  1  0.85970939  0.86638649  0.67226013  1
  C  C214  1  0.68975352  0.67641849  0.56410396  1
  C  C215  1  0.68195771  0.68974342  0.62694296  1
  C  C216  1  0.62095957  0.63669252  0.67374231  1
  N  N217  1  0.74552441  0.73861378  0.66452781  1
  H  H218  1  0.64633214  0.62433805  0.54294210  1
  C  C219  1  0.75396168  0.73821806  0.53239595  1
  O  O220  1  0.84592424  0.86277734  0.72859508  1
  O  O221  1  0.63457831  0.64225417  0.73173537  1
  Zn  Zn222  1  0.99690057  0.50619979  0.73255912  1
  Zn  Zn223  1  0.99289887  0.98710897  0.73365183  1
  Zn  Zn224  1  0.50058764  0.99473467  0.73011205  1
  C  C225  1  0.61018190  0.87897285  0.83103114  1
  H  H226  1  0.58966820  0.90256641  0.95945726  1
  C  C227  1  0.87281910  0.61870962  0.82048266  1
  C  C228  1  0.92957473  0.55696835  0.86540077  1
  O  O229  1  0.65977559  0.81175946  0.84972859  1
  C  C230  1  0.91723351  0.55691776  0.92982614  1
  O  O231  1  0.89501747  0.61854476  0.76417193  1
  O  O232  1  0.80915874  0.66789840  0.84130416  1
  H  H233  1  0.86071174  0.60511404  0.94823580  1
  O  O234  1  0.60262114  0.89187714  0.77371746  1
  Zn  Zn235  1  0.74086390  0.74210621  0.76984132  1
  C  C236  1  0.55975957  0.95558633  0.87111459  1
  C  C237  1  0.55040773  0.95552461  0.93465767  1
  N  N238  1  0.99445667  0.50211794  0.83442939  1
  C  C239  1  0.50955582  0.50789965  0.96020477  1
