# generated using pymatgen
data_Zn2H9C19N7O6
_symmetry_space_group_name_H-M   'P 1'
_cell_length_a   20.68844995
_cell_length_b   23.57642217
_cell_length_c   19.62700247
_cell_angle_alpha   90.00000000
_cell_angle_beta   90.00000000
_cell_angle_gamma   90.00000000
_symmetry_Int_Tables_number   1
_chemical_formula_structural   Zn2H9C19N7O6
_chemical_formula_sum   'Zn32 H144 C304 N112 O96'
_cell_volume   9573.25946157
_cell_formula_units_Z   16
loop_
 _symmetry_equiv_pos_site_id
 _symmetry_equiv_pos_as_xyz
  1  'x, y, z'
loop_
 _atom_site_type_symbol
 _atom_site_label
 _atom_site_symmetry_multiplicity
 _atom_site_fract_x
 _atom_site_fract_y
 _atom_site_fract_z
 _atom_site_occupancy
  O  O0  1  0.14131844  0.14747668  0.17468643  1
  O  O1  1  0.08993442  0.38812635  0.02903269  1
  N  N2  1  0.42334712  0.14415542  0.19391020  1
  N  N3  1  0.00770103  0.47323835  0.14204174  1
  C  C4  1  0.37222633  0.17421868  0.21786634  1
  O  O5  1  0.23864930  0.13668436  0.21396094  1
  H  H6  1  0.02581681  0.44220450  0.11004301  1
  C  C7  1  0.46338681  0.17830376  0.16185888  1
  C  C8  1  0.33727061  0.06788879  0.03321983  1
  O  O9  1  0.29126332  0.15983182  0.04175077  1
  N  N10  1  0.03485592  0.03597498  0.10797940  1
  N  N11  1  0.46045493  0.33472577  0.09606704  1
  C  C12  1  0.27744307  0.42927254  0.22724001  1
  C  C13  1  0.22325989  0.46900256  0.21943736  1
  C  C14  1  0.48451420  0.37404216  0.05115948  1
  C  C15  1  0.03475103  0.04295628  0.17807747  1
  C  C16  1  0.36128047  0.47341545  0.08906136  1
  N  N17  1  0.14393804  0.01287638  0.19839834  1
  N  N18  1  0.29045431  0.38788812  0.18165910  1
  H  H19  1  0.24391629  0.34961944  0.09924671  1
  C  C20  1  0.48054019  0.27948018  0.10089959  1
  C  C21  1  0.31215453  0.12450226  0.00473574  1
  C  C22  1  0.18676526  0.16541155  0.20702410  1
  C  C23  1  0.44038398  0.42789811  0.04422610  1
  C  C24  1  0.23847775  0.38125005  0.14199145  1
  C  C25  1  0.18018508  0.41421335  0.14447719  1
  Zn  Zn26  1  0.37743401  0.35814110  0.16374034  1
  N  N27  1  0.39498421  0.42629331  0.09145704  1
  H  H28  1  0.06766112  0.22149094  0.23984283  1
  C  C29  1  0.36647431  0.22893963  0.19982302  1
  N  N30  1  0.39307367  0.27011870  0.17581953  1
  C  C31  1  0.44329926  0.23713648  0.15038475  1
  C  C32  1  0.33534824  0.05966168  0.10324892  1
  H  H33  1  0.13631975  0.40753126  0.10886633  1
  H  H34  1  0.49780068  0.15506540  0.13116166  1
  H  H35  1  0.31409454  0.08976696  0.13976182  1
  N  N36  1  0.17543705  0.46444885  0.17666488  1
  H  H37  1  0.32068982  0.47283279  0.12561890  1
  H  H38  1  0.10935423  0.07124482  0.03397435  1
  C  C39  1  0.08818993  0.02693573  0.22380024  1
  O  O40  1  0.33220360  0.03841088  0.24234495  1
  H  H41  1  0.34093051  0.14900672  0.24961817  1
  H  H42  1  0.01050979  0.30277237  0.08002187  1
  C  C43  1  0.35985588  0.00843007  0.12742410  1
  Zn  Zn44  1  0.23171699  0.04999969  0.23490279  1
  O  O45  1  0.14578937  0.22888296  0.00476094  1
  C  C46  1  0.22795501  0.24034150  0.28475726  1
  C  C47  1  0.08185608  0.49983730  0.48419171  1
  H  H48  1  0.22839452  0.03282677  0.38550899  1
  C  C49  1  0.28610351  0.30687155  0.35368314  1
  O  O50  1  0.03618106  0.33682159  0.37925192  1
  N  N51  1  0.04245459  0.45702801  0.47401810  1
  C  C52  1  0.41230467  0.13960959  0.39056245  1
  H  H53  1  0.01868057  0.04134922  0.40829761  1
  C  C54  1  0.05929553  0.02390258  0.43851753  1
  C  C55  1  0.00568206  0.49564538  0.28472819  1
  C  C56  1  0.01490364  0.45699694  0.41179150  1
  H  H57  1  0.44145929  0.21701817  0.45437502  1
  C  C58  1  0.39849157  0.48178820  0.36248307  1
  C  C59  1  0.26003614  0.08798451  0.44470782  1
  N  N60  1  0.43339335  0.08845726  0.37200370  1
  H  H61  1  0.27542383  0.21983013  0.27634221  1
  H  H62  1  0.37418871  0.03371959  0.45090776  1
  C  C63  1  0.15920039  0.30861200  0.34137730  1
  N  N64  1  0.47776578  0.34976764  0.39805004  1
  N  N65  1  0.34914160  0.48028796  0.31703012  1
  H  H66  1  0.36882530  0.14784912  0.36133300  1
  H  H67  1  0.15096278  0.34127697  0.38306251  1
  C  C68  1  0.36331361  0.06299697  0.49416377  1
  N  N69  1  0.43311250  0.43544576  0.37381953  1
  C  C70  1  0.10781162  0.28481782  0.30926838  1
  N  N71  1  0.08246732  0.02727155  0.29276201  1
  C  C72  1  0.33924580  0.43998629  0.26982277  1
  Zn  Zn73  1  0.37983756  0.36908424  0.43285192  1
  O  O74  1  0.28963936  0.34972320  0.39430313  1
  Zn  Zn75  1  0.46395289  0.38092916  0.30232660  1
  O  O76  1  0.33288368  0.27758050  0.33973110  1
  C  C77  1  0.22119151  0.28778856  0.32555017  1
  H  H78  1  0.04061048  0.13700923  0.44145836  1
  C  C79  1  0.45066118  0.17385902  0.43532893  1
  C  C80  1  0.03821169  0.30155555  0.33115525  1
  C  C81  1  0.49120848  0.07433077  0.39426500  1
  O  O82  1  0.27238647  0.03778976  0.40459082  1
  C  C83  1  0.30764911  0.09568847  0.49930547  1
  N  N84  1  0.00071369  0.15469160  0.34930210  1
  O  O85  1  0.21115517  0.11331315  0.43943303  1
  C  C86  1  0.11860278  0.00425165  0.40639061  1
  C  C87  1  0.13085854  0.00693397  0.33051116  1
  C  C88  1  0.17291931  0.21742806  0.25070877  1
  C  C89  1  0.11372673  0.24059664  0.26111828  1
  N  N90  1  0.38634215  0.40547458  0.25236867  1
  O  O91  1  0.36956291  0.18756104  0.70115526  1
  N  N92  1  0.24315156  0.46919973  0.56008300  1
  H  H93  1  0.24765663  0.16477601  0.54746375  1
  O  O94  1  0.11594731  0.14404547  0.64177657  1
  C  C95  1  0.49257071  0.30273436  0.59889747  1
  H  H96  1  0.19804855  0.08780169  0.68695340  1
  C  C97  1  0.45373938  0.32336626  0.65651038  1
  C  C98  1  0.39546410  0.11514379  0.59859250  1
  O  O99  1  0.13023661  0.32106320  0.72484658  1
  H  H100  1  0.42764320  0.11893216  0.64163124  1
  C  C101  1  0.40668816  0.07288841  0.54801490  1
  C  C102  1  0.32817194  0.19053168  0.65715693  1
  O  O103  1  0.27786963  0.21712215  0.65783633  1
  C  C104  1  0.19752810  0.33519009  0.73375633  1
  N  N105  1  0.45985071  0.30126768  0.71692756  1
  C  C106  1  0.46303801  0.03483250  0.55018185  1
  H  H107  1  0.28386731  0.42926491  0.63992656  1
  C  C108  1  0.08838661  0.14947158  0.69633681  1
  C  C109  1  0.33849289  0.14582693  0.59471813  1
  C  C110  1  0.29251393  0.13864790  0.54675674  1
  H  H111  1  0.42636647  0.36239057  0.65685863  1
  C  C112  1  0.48034649  0.32263622  0.52870930  1
  O  O113  1  0.04165988  0.17915012  0.70862002  1
  C  C114  1  0.49978511  0.25660527  0.71729239  1
  C  C115  1  0.25130389  0.46539230  0.62798450  1
  O  O116  1  0.22916555  0.35630765  0.69029957  1
  H  H117  1  0.12025692  0.34048035  0.68098841  1
  O  O118  1  0.29924142  0.03610618  0.72478150  1
  N  N119  1  0.05134392  0.03132175  0.50485508  1
  C  C120  1  0.17750051  0.08984427  0.74027940  1
  N  N121  1  0.45073655  0.36822325  0.50554391  1
  C  C122  1  0.09963881  0.00903843  0.54144640  1
  H  H123  1  0.09066362  0.01514275  0.59600657  1
  C  C124  1  0.28880713  0.32582537  0.82374330  1
  O  O125  1  0.31429899  0.13039239  0.94036922  1
  C  C126  1  0.46019955  0.46348147  0.80042204  1
  C  C127  1  0.36722685  0.32644945  0.91880570  1
  C  C128  1  0.14076891  0.24149681  0.94743599  1
  Zn  Zn129  1  0.39064896  0.13043030  0.87526111  1
  N  N130  1  0.16853266  0.46390234  0.88266078  1
  C  C131  1  0.28683048  0.45617138  0.88540591  1
  C  C132  1  0.09360228  0.11885190  0.82103193  1
  C  C133  1  0.20554741  0.06131961  0.79331094  1
  H  H134  1  0.12259606  0.28611927  0.81957168  1
  N  N135  1  0.47167040  0.17264526  0.87034865  1
  C  C136  1  0.36307366  0.03043753  0.98523686  1
  H  H137  1  0.44786280  0.24837529  0.92051907  1
  N  N138  1  0.44022718  0.07212236  0.82624611  1
  C  C139  1  0.12026781  0.11752767  0.75746924  1
  H  H140  1  0.36296383  0.03831871  0.92977472  1
  C  C141  1  0.18402183  0.05851184  0.86169200  1
  H  H142  1  0.21504723  0.04303062  0.90379041  1
  H  H143  1  0.11838277  0.44847223  0.88682745  1
  H  H144  1  0.21025085  0.39194919  0.90764215  1
  C  C145  1  0.09677288  0.08593614  0.94248133  1
  O  O146  1  0.08241203  0.22318557  0.90852608  1
  C  C147  1  0.22266450  0.43449338  0.89393481  1
  O  O148  1  0.06808901  0.40130734  0.92317054  1
  H  H149  1  0.33076649  0.43054517  0.89785125  1
  H  H150  1  0.47620928  0.46506669  0.94876509  1
  H  H151  1  0.06139904  0.20493579  0.94608153  1
  O  O152  1  0.04721279  0.10753128  0.95701461  1
  C  C153  1  0.18836905  0.27517342  0.90629175  1
  C  C154  1  0.48417427  0.22363308  0.89175260  1
  C  C155  1  0.24899441  0.29068762  0.93303036  1
  H  H156  1  0.25677389  0.27768524  0.98564814  1
  C  C157  1  0.44296023  0.46868573  0.98847447  1
  H  H158  1  0.41803969  0.44134062  0.81994277  1
  O  O159  1  0.37777707  0.31308280  0.97681226  1
  C  C160  1  0.17472506  0.29278502  0.83997048  1
  H  H161  1  0.04863531  0.14248671  0.83025574  1
  O  O162  1  0.40379822  0.35561487  0.88445750  1
  C  C163  1  0.12677986  0.08687433  0.87173055  1
  C  C164  1  0.05648825  0.37668603  0.97728407  1
  C  C165  1  0.29746435  0.31060812  0.89094477  1
  C  C166  1  0.27249946  0.03482057  0.77972789  1
  O  O167  1  0.29879770  0.01437110  0.83322797  1
  O  O168  1  0.12840750  0.05403708  0.99469494  1
  H  H169  1  0.32869539  0.34274876  0.78996436  1
  C  C170  1  0.22367408  0.31801162  0.80082764  1
  C  C171  1  0.49941619  0.08519945  0.80915387  1
  C  C172  1  0.00328806  0.33221499  0.97684525  1
  C  C173  1  0.17495418  0.62152340  0.10635765  1
  N  N174  1  0.15949923  0.56633652  0.09698369  1
  C  C175  1  0.19338043  0.54907667  0.04414138  1
  C  C176  1  0.21710983  0.65803057  0.06641994  1
  N  N177  1  0.24860410  0.63918915  0.01528342  1
  H  H178  1  0.23127760  0.70218749  0.08160636  1
  C  C179  1  0.44570605  0.67931885  0.10855759  1
  C  C180  1  0.13588976  0.64742379  0.16628997  1
  H  H181  1  0.18074939  0.50460157  0.03418034  1
  Zn  Zn182  1  0.10262374  0.52323451  0.16780229  1
  C  C183  1  0.40156297  0.72021872  0.07265616  1
  C  C184  1  0.21400142  0.89326358  0.00258315  1
  H  H185  1  0.17578206  0.81002557  0.19827928  1
  H  H186  1  0.29304525  0.85007083  0.16727690  1
  C  C187  1  0.13313610  0.81944802  0.23037499  1
  O  O188  1  0.08703577  0.77512688  0.06722616  1
  N  N189  1  0.47310446  0.64412302  0.06138996  1
  N  N190  1  0.22064194  0.90352382  0.12974435  1
  C  C191  1  0.38606381  0.96811328  0.08374800  1
  C  C192  1  0.36377445  0.51367972  0.03441364  1
  N  N193  1  0.49985269  0.63727843  0.20051382  1
  H  H194  1  0.16336848  0.94956827  0.07664038  1
  N  N195  1  0.09905538  0.60357702  0.19551155  1
  O  O196  1  0.37673694  0.95451256  0.22575990  1
  C  C197  1  0.26775838  0.86836135  0.12082584  1
  C  C198  1  0.28598273  0.84388212  0.05426876  1
  N  N199  1  0.35999182  0.76323275  0.09007787  1
  C  C200  1  0.19918882  0.91750231  0.06723127  1
  C  C201  1  0.32884723  0.79304089  0.04130664  1
  C  C202  1  0.09302561  0.71232417  0.22726035  1
  C  C203  1  0.45710338  0.67633326  0.18039939  1
  H  H204  1  0.32826464  0.54683603  0.02564481  1
  H  H205  1  0.43718714  0.70284395  0.22488175  1
  N  N206  1  0.13761247  0.70099890  0.18203907  1
  H  H207  1  0.40503714  0.92684254  0.10112426  1
  C  C208  1  0.02784389  0.80476801  0.08437964  1
  Zn  Zn209  1  0.18787869  0.93359392  0.22265629  1
  H  H210  1  0.09039771  0.75268222  0.10836166  1
  C  C211  1  0.23596638  0.58363811  0.00441153  1
  N  N212  1  0.40394085  0.71073156  0.00474090  1
  C  C213  1  0.35903885  0.99944418  0.20389835  1
  C  C214  1  0.01293180  0.85272184  0.03705378  1
  O  O215  1  0.27538063  0.78275411  0.22718916  1
  O  O216  1  0.00131559  0.79917101  0.13760636  1
  C  C217  1  0.08414501  0.77620273  0.24205438  1
  N  N218  1  0.12595443  0.87250249  0.24833386  1
  H  H219  1  0.22117918  0.51138439  0.24365631  1
  C  C220  1  0.38619121  0.98183976  0.01420462  1
  Zn  Zn221  1  0.08899540  0.59657360  0.30089565  1
  N  N222  1  0.06863088  0.53943716  0.37246625  1
  C  C223  1  0.02884552  0.83514695  0.30023270  1
  N  N224  1  0.03693800  0.53659412  0.25158406  1
  H  H225  1  0.34781598  0.59977726  0.40297079  1
  C  C226  1  0.09569946  0.54154141  0.43382455  1
  H  H227  1  0.23437947  0.63730483  0.48267152  1
  C  C228  1  0.07262517  0.88114596  0.28604824  1
  O  O229  1  0.26971403  0.84958959  0.30422785  1
  C  C230  1  0.42194225  0.52611171  0.41315335  1
  H  H231  1  0.13212171  0.57799186  0.43461551  1
  C  C232  1  0.25073795  0.75340921  0.34512100  1
  C  C233  1  0.01233602  0.69531848  0.42431318  1
  O  O234  1  0.45940967  0.68454298  0.34375861  1
  H  H235  1  0.04532775  0.67241975  0.39074219  1
  N  N236  1  0.16806263  0.98488951  0.44520394  1
  H  H237  1  0.20094312  0.51041556  0.48269332  1
  C  C238  1  0.23846657  0.67242435  0.44249363  1
  C  C239  1  0.24570979  0.77075942  0.41241577  1
  H  H240  1  0.25476774  0.52397319  0.35925328  1
  H  H241  1  0.25185275  0.81646946  0.42295195  1
  H  H242  1  0.06646073  0.92768163  0.29583855  1
  N  N243  1  0.40382964  0.61538426  0.47650634  1
  C  C244  1  0.24534978  0.69919049  0.32078601  1
  N  N245  1  0.04973613  0.67554765  0.25813214  1
  N  N246  1  0.02739759  0.78298128  0.27465873  1
  C  C247  1  0.23782872  0.59926864  0.34191499  1
  N  N248  1  0.18462833  0.99478093  0.29921443  1
  C  C249  1  0.38668351  0.57801571  0.43020455  1
  O  O250  1  0.23788110  0.58960664  0.28321724  1
  O  O251  1  0.23785170  0.55270901  0.38826760  1
  C  C252  1  0.23965332  0.72762687  0.46179410  1
  C  C253  1  0.23769556  0.65804960  0.37300835  1
  N  N254  1  0.46934861  0.50468829  0.45362171  1
  C  C255  1  0.02370210  0.50025089  0.36295465  1
  H  H256  1  0.25340133  0.68832129  0.26862353  1
  C  C257  1  0.26885302  0.80049207  0.28678006  1
  C  C258  1  0.49036907  0.54536597  0.49243254  1
  O  O259  1  0.49440799  0.76802112  0.34549750  1
  C  C260  1  0.02021157  0.69688431  0.49847967  1
  C  C261  1  0.18388079  0.55196412  0.59116635  1
  C  C262  1  0.13764749  0.59978145  0.58030870  1
  N  N263  1  0.12186799  0.62774492  0.63642744  1
  N  N264  1  0.10691661  0.62096282  0.52304189  1
  N  N265  1  0.19500087  0.54658047  0.65955330  1
  C  C266  1  0.06777926  0.66385789  0.54233908  1
  C  C267  1  0.20974323  0.51359297  0.53951029  1
  H  H268  1  0.47248542  0.63345149  0.54348786  1
  C  C269  1  0.45101841  0.67961356  0.65543325  1
  C  C270  1  0.45939007  0.59973025  0.50455941  1
  H  H271  1  0.24025618  0.50175233  0.73307999  1
  C  C272  1  0.37217268  0.59902964  0.67858459  1
  O  O273  1  0.48617910  0.79518476  0.65369585  1
  C  C274  1  0.44145169  0.62229132  0.65704353  1
  N  N275  1  0.08076917  0.76368459  0.73479523  1
  O  O276  1  0.33308481  0.63737606  0.68618013  1
  O  O277  1  0.01668056  0.87978959  0.65931571  1
  O  O278  1  0.35943968  0.55062518  0.69414657  1
  N  N279  1  0.06982835  0.68104756  0.60443452  1
  O  O280  1  0.23076322  0.71158585  0.57874369  1
  H  H281  1  0.12360163  0.69317689  0.71416568  1
  H  H282  1  0.40635224  0.70679489  0.65928173  1
  C  C283  1  0.22936550  0.50385615  0.67993414  1
  Zn  Zn284  1  0.02292590  0.75306075  0.64477899  1
  C  C285  1  0.48955634  0.58382360  0.64352454  1
  H  H286  1  0.19730496  0.96763575  0.53852082  1
  Zn  Zn287  1  0.16424240  0.60401545  0.72473388  1
  O  O288  1  0.23862654  0.79904451  0.54355583  1
  H  H289  1  0.09908999  0.50041441  0.53655864  1
  C  C290  1  0.23572125  0.74785400  0.53579190  1
  C  C291  1  0.15542556  0.98425517  0.51155808  1
  H  H292  1  0.48061130  0.53767013  0.64527643  1
  O  O293  1  0.46588231  0.99664964  0.51128106  1
  C  C294  1  0.24119360  0.53957904  0.85873491  1
  C  C295  1  0.22992109  0.68796571  0.82133413  1
  N  N296  1  0.28134490  0.71067557  0.85411738  1
  N  N297  1  0.21146079  0.63370920  0.81165669  1
  N  N298  1  0.31515920  0.61802647  0.87231053  1
  C  C299  1  0.25687615  0.60432269  0.84828355  1
  Zn  Zn300  1  0.38646708  0.54794875  0.88349440  1
  Zn  Zn301  1  0.37914009  0.67508708  0.83431643  1
  N  N302  1  0.44664957  0.61343270  0.86699858  1
  Zn  Zn303  1  0.31638931  0.68606717  0.95880421  1
  N  N304  1  0.46001144  0.71083934  0.87617608  1
  N  N305  1  0.29393312  0.50992357  0.87473433  1
  H  H306  1  0.26216326  0.56385843  0.96171518  1
  N  N307  1  0.47443193  0.97024369  0.76934690  1
  Zn  Zn308  1  0.45447009  0.65200943  0.96127792  1
  C  C309  1  0.17826986  0.51704938  0.86339184  1
  O  O310  1  0.42647324  0.89087342  0.99660792  1
  N  N311  1  0.45832908  0.51622160  0.82006716  1
  N  N312  1  0.33006801  0.77318040  0.97560567  1
  C  C313  1  0.03989375  0.89743546  0.93079355  1
  C  C314  1  0.08178698  0.90662515  0.87025858  1
  H  H315  1  0.18759449  0.90054443  0.95441716  1
  N  N316  1  0.39883904  0.50685813  0.97785247  1
  Zn  Zn317  1  0.42787922  0.77380380  0.93586596  1
  C  C318  1  0.08460488  0.80300713  0.78215975  1
  N  N319  1  0.19053137  0.78121847  0.83749743  1
  H  H320  1  0.13299999  0.54347853  0.85753956  1
  O  O321  1  0.07251829  0.93469403  0.82211375  1
  Zn  Zn322  1  0.26848199  0.79512952  0.90628090  1
  C  C323  1  0.18027327  0.73547575  0.80055320  1
  O  O324  1  0.40068962  0.93079022  0.90266937  1
  C  C325  1  0.13897694  0.81517628  0.82966726  1
  O  O326  1  0.13790422  0.85954524  0.87139271  1
  C  C327  1  0.40286908  0.93158768  0.96891337  1
  H  H328  1  0.04588437  0.83233901  0.76890974  1
  C  C329  1  0.05329881  0.85702341  0.98071735  1
  H  H330  1  0.09687774  0.82861118  0.97868258  1
  H  H331  1  0.48964867  0.88102609  0.90548269  1
  Zn  Zn332  1  0.40248352  0.99594753  0.82718864  1
  N  N333  1  0.25405851  0.85081856  0.99595836  1
  C  C334  1  0.12721197  0.72764598  0.75206663  1
  C  C335  1  0.63666896  0.11500598  0.11737828  1
  C  C336  1  0.96428799  0.45636565  0.19630600  1
  N  N337  1  0.91344435  0.41221611  0.10124372  1
  C  C338  1  0.72736142  0.48401447  0.05684675  1
  C  C339  1  0.66108174  0.10570558  0.18421866  1
  O  O340  1  0.69359491  0.27441123  0.02218510  1
  C  C341  1  0.87308764  0.37321456  0.07767217  1
  O  O342  1  0.59435116  0.42897739  0.15742484  1
  C  C343  1  0.97865766  0.07809685  0.19461973  1
  C  C344  1  0.93308163  0.26035680  0.02339332  1
  N  N345  1  0.83830397  0.33908043  0.18607137  1
  C  C346  1  0.94466412  0.08707410  0.12982835  1
  C  C347  1  0.56879709  0.07350935  0.01153626  1
  H  H348  1  0.59445999  0.21841562  0.18353108  1
  C  C349  1  0.90933130  0.21774479  0.07625111  1
  H  H350  1  0.87805386  0.37710115  0.02210993  1
  H  H351  1  0.80800785  0.29862511  0.09614272  1
  N  N352  1  0.92229958  0.10422871  0.19082946  1
  C  C353  1  0.69149322  0.38875370  0.08004550  1
  H  H354  1  0.65494504  0.15005289  0.08541882  1
  C  C355  1  0.68639695  0.44778897  0.08864059  1
  C  C356  1  0.83333659  0.33704802  0.11865800  1
  C  C357  1  0.57485132  0.23349810  0.23082157  1
  N  N358  1  0.53096573  0.25995967  0.07033609  1
  Zn  Zn359  1  0.91404186  0.20075423  0.23645176  1
  H  H360  1  0.98017279  0.06048881  0.02038659  1
  C  C361  1  0.91556859  0.41479156  0.17052123  1
  C  C362  1  0.64039517  0.05993636  0.22566440  1
  C  C363  1  0.72791658  0.37007461  0.02560301  1
  C  C364  1  0.63171112  0.46693850  0.13963166  1
  O  O365  1  0.72762986  0.18948232  0.17980922  1
  C  C366  1  0.87715702  0.37804131  0.21296029  1
  H  H367  1  0.66198955  0.35891520  0.10923328  1
  O  O368  1  0.93408173  0.22431878  0.13468284  1
  C  C369  1  0.98460772  0.29891735  0.03167697  1
  O  O370  1  0.86080830  0.18938716  0.06694917  1
  C  C371  1  0.59423363  0.02818294  0.19573351  1
  C  C372  1  0.70616767  0.14932792  0.20981919  1
  C  C373  1  0.59594673  0.07547018  0.08954448  1
  H  H374  1  0.53598289  0.31839235  0.19450705  1
  N  N375  1  0.53803126  0.37082999  0.01704638  1
  C  C376  1  0.57110477  0.03104694  0.12783243  1
  C  C377  1  0.73400346  0.30834949  0.00032910  1
  C  C378  1  0.54523381  0.28853621  0.23641677  1
  C  C379  1  0.98393033  0.06213479  0.07775321  1
  Zn  Zn380  1  0.78293102  0.29101988  0.24944924  1
  C  C381  1  0.76962461  0.46331036  0.00565469  1
  Zn  Zn382  1  0.58104093  0.29855494  0.00292489  1
  N  N383  1  0.62831444  0.06105388  0.43734796  1
  C  C384  1  0.68858397  0.06986821  0.45435121  1
  C  C385  1  0.59408318  0.09958474  0.46914373  1
  H  H386  1  0.65902066  0.05531800  0.27888027  1
  H  H387  1  0.87766225  0.24994657  0.46690719  1
  C  C388  1  0.74045447  0.03812005  0.41120938  1
  H  H389  1  0.88436327  0.06890455  0.37724038  1
  H  H390  1  0.87320764  0.37779433  0.26792762  1
  C  C391  1  0.52342132  0.10964045  0.44317868  1
  C  C392  1  0.93414125  0.14267267  0.45770464  1
  C  C393  1  0.94644249  0.16849738  0.33389620  1
  N  N394  1  0.96249491  0.45862383  0.26237574  1
  C  C395  1  0.72486008  0.26798757  0.38399011  1
  N  N396  1  0.79520994  0.06531791  0.42355640  1
  H  H397  1  0.50700212  0.03489252  0.37227571  1
  N  N398  1  0.64620443  0.27689228  0.49291354  1
  H  H399  1  0.69485361  0.41009355  0.48726945  1
  H  H400  1  0.87644516  0.44303765  0.36866658  1
  N  N401  1  0.52092640  0.30657071  0.29554419  1
  O  O402  1  0.88330884  0.34934210  0.44656985  1
  C  C403  1  0.64678798  0.39064242  0.47765588  1
  Zn  Zn404  1  0.78347948  0.16370790  0.48987058  1
  C  C405  1  0.53102890  0.27362312  0.34945827  1
  N  N406  1  0.57873305  0.19799592  0.28470822  1
  C  C407  1  0.88280337  0.44772041  0.47933573  1
  C  C408  1  0.64181591  0.47501837  0.44267122  1
  C  C409  1  0.89140603  0.38456236  0.49111790  1
  N  N410  1  0.87771793  0.15841116  0.43646304  1
  C  C411  1  0.88460984  0.17570086  0.37252369  1
  N  N412  1  0.60481961  0.43036575  0.45574819  1
  C  C413  1  0.84040516  0.04182944  0.38184631  1
  H  H414  1  0.75128571  0.17192071  0.29030871  1
  H  H415  1  0.57342521  0.18953315  0.38391798  1
  N  N416  1  0.71847848  0.29143094  0.32599359  1
  C  C417  1  0.87603273  0.47095712  0.41397963  1
  C  C418  1  0.63723424  0.32980909  0.46690106  1
  H  H419  1  0.69630035  0.46784438  0.45987301  1
  C  C420  1  0.82547062  0.21514172  0.35194280  1
  C  C421  1  0.56513076  0.21881109  0.34297606  1
  N  N422  1  0.77577532  0.22642132  0.39544613  1
  N  N423  1  0.83462845  0.23296581  0.29068352  1
  C  C424  1  0.67267045  0.28720645  0.43369057  1
  O  O425  1  0.98969966  0.29483865  0.29545074  1
  N  N426  1  0.51070013  0.28702253  0.48092378  1
  N  N427  1  0.71203670  0.10861593  0.49693369  1
  N  N428  1  0.50641831  0.16186431  0.46546039  1
  O  O429  1  0.72884492  0.13669359  0.27551175  1
  H  H430  1  0.99488773  0.41281327  0.40685395  1
  Zn  Zn431  1  0.50468267  0.42509283  0.44536034  1
  C  C432  1  0.99269777  0.14542005  0.41763035  1
  C  C433  1  0.50531754  0.29942776  0.41446364  1
  N  N434  1  0.67696200  0.13577855  0.68216319  1
  Zn  Zn435  1  0.62222836  0.08142612  0.72454919  1
  Zn  Zn436  1  0.67242638  0.13238039  0.58657717  1
  C  C437  1  0.87780739  0.05618688  0.60631226  1
  H  H438  1  0.76264032  0.00819528  0.59046984  1
  C  C439  1  0.83794536  0.22960741  0.61662493  1
  O  O440  1  0.83895703  0.07683472  0.64597043  1
  N  N441  1  0.76360370  0.20598835  0.70924779  1
  H  H442  1  0.56543555  0.19174808  0.66015214  1
  C  C443  1  0.88266525  0.48399391  0.53756457  1
  C  C444  1  0.75948535  0.41573372  0.58504023  1
  Zn  Zn445  1  0.56819698  0.22006900  0.51726376  1
  N  N446  1  0.53091632  0.25556992  0.60389749  1
  C  C447  1  0.92464009  0.30074173  0.56141535  1
  H  H448  1  0.91069936  0.24406407  0.70602717  1
  H  H449  1  0.80753168  0.32966277  0.59032770  1
  C  C450  1  0.72130113  0.16102293  0.71770653  1
  N  N451  1  0.75511171  0.16822438  0.58901691  1
  N  N452  1  0.60920626  0.13752097  0.51625254  1
  O  O453  1  0.91252392  0.36910505  0.55091634  1
  C  C454  1  0.87715983  0.25978698  0.52197458  1
  C  C455  1  0.72325084  0.44686609  0.63674797  1
  C  C456  1  0.72006243  0.40363525  0.69337551  1
  N  N457  1  0.93783977  0.28167152  0.62451360  1
  O  O458  1  0.50856985  0.04371077  0.59968927  1
  N  N459  1  0.75372997  0.35693745  0.67872541  1
  H  H460  1  0.89067372  0.46770815  0.59108064  1
  N  N461  1  0.83752954  0.22483149  0.54597024  1
  C  C462  1  0.77632413  0.36265179  0.61578057  1
  C  C463  1  0.89145986  0.25530654  0.65340629  1
  C  C464  1  0.78059558  0.19425774  0.64154275  1
  C  C465  1  0.53573803  0.23184745  0.66404324  1
  N  N466  1  0.73217357  0.46380310  0.57689612  1
  O  O467  1  0.93438069  0.07072892  0.60457026  1
  C  C468  1  0.56233794  0.00052397  0.61130452  1
  N  N469  1  0.60447887  0.00998454  0.66128788  1
  H  H470  1  0.93385896  0.13648085  0.51399896  1
  N  N471  1  0.56031059  0.47377560  0.73691696  1
  H  H472  1  0.62648514  0.49208318  0.59716678  1
  H  H473  1  0.97635197  0.30232413  0.54061425  1
  C  C474  1  0.86159562  0.00205549  0.55647779  1
  H  H475  1  0.52130434  0.39845785  0.74329490  1
  H  H476  1  0.62807149  0.05428486  0.87673055  1
  C  C477  1  0.66970305  0.08430590  0.86923077  1
  C  C478  1  0.70595301  0.10787172  0.92317283  1
  H  H479  1  0.70624208  0.08951423  0.97393939  1
  C  C480  1  0.57105159  0.18924531  0.83645768  1
  N  N481  1  0.71003146  0.35045774  0.79260792  1
  N  N482  1  0.75447321  0.14189699  0.91434378  1
  N  N483  1  0.59259019  0.27468433  0.90811780  1
  C  C484  1  0.92048142  0.29485793  0.90604023  1
  N  N485  1  0.67548281  0.10378981  0.80678687  1
  H  H486  1  0.61776981  0.18558319  0.81052163  1
  H  H487  1  0.80854699  0.18270278  0.84507677  1
  Zn  Zn488  1  0.65009121  0.33368401  0.87058389  1
  C  C489  1  0.76315643  0.15769680  0.85098290  1
  C  C490  1  0.55454408  0.23668625  0.87807415  1
  N  N491  1  0.68385793  0.44968189  0.80188575  1
  C  C492  1  0.88975171  0.29589006  0.83609551  1
  C  C493  1  0.90002984  0.26304368  0.96194608  1
  N  N494  1  0.64079106  0.41179139  0.89998500  1
  C  C495  1  0.51132601  0.44190611  0.76009291  1
  O  O496  1  0.91026816  0.32837593  0.79347649  1
  O  O497  1  0.84733167  0.25773967  0.81872912  1
  C  C498  1  0.97211853  0.33271766  0.91387246  1
  C  C499  1  0.65973791  0.45329199  0.86510514  1
  C  C500  1  0.51971960  0.14768253  0.83425677  1
  O  O501  1  0.57456182  0.11616972  0.97709009  1
  N  N502  1  0.53706314  0.05209346  0.77000384  1
  C  C503  1  0.72330125  0.13959806  0.79546692  1
  H  H504  1  0.50273855  0.24532623  0.77287493  1
  H  H505  1  0.98361112  0.36467772  0.87393691  1
  H  H506  1  0.85637987  0.23786710  0.95454073  1
  H  H507  1  0.79683235  0.02034488  0.77338032  1
  H  H508  1  0.78855938  0.38614611  0.93897686  1
  O  O509  1  0.84950955  0.48789941  0.92388104  1
  Zn  Zn510  1  0.58688655  0.44198158  0.98303367  1
  O  O511  1  0.88076233  0.08982875  0.78627137  1
  C  C512  1  0.92109985  0.05253307  0.77295237  1
  C  C513  1  0.76445047  0.40661274  0.98512581  1
  O  O514  1  0.97700345  0.05413114  0.79238403  1
  O  O515  1  0.76860525  0.29685776  0.95124081  1
  O  O516  1  0.54013177  0.03181357  0.99561380  1
  O  O517  1  0.87861611  0.00037169  0.96431855  1
  Zn  Zn518  1  0.77056305  0.29452174  0.75371516  1
  C  C519  1  0.70122194  0.40182524  0.76893058  1
  Zn  Zn520  1  0.99782945  0.61291981  0.19680424  1
  C  C521  1  0.91134235  0.62977240  0.07208259  1
  N  N522  1  0.93268268  0.59123887  0.11974574  1
  O  O523  1  0.76680588  0.58914731  0.15077463  1
  N  N524  1  0.78885552  0.83065478  0.16314099  1
  C  C525  1  0.62939499  0.74488861  0.10567217  1
  C  C526  1  0.81233739  0.84203150  0.22451451  1
  C  C527  1  0.72611299  0.67215307  0.05657047  1
  C  C528  1  0.80835585  0.78029167  0.13904018  1
  C  C529  1  0.72633052  0.62440849  0.17325845  1
  C  C530  1  0.88419913  0.69119504  0.15922631  1
  N  N531  1  0.92000883  0.66793049  0.20656194  1
  C  C532  1  0.85370497  0.74743407  0.17664402  1
  H  H533  1  0.63618473  0.70654100  0.20253589  1
  C  C534  1  0.95827767  0.88753519  0.04696757  1
  H  H535  1  0.53884724  0.57638284  0.05080629  1
  C  C536  1  0.65408854  0.70609041  0.14986283  1
  C  C537  1  0.51256037  0.60495995  0.08752929  1
  N  N538  1  0.88310556  0.67739138  0.09290212  1
  H  H539  1  0.78410229  0.77126535  0.09106136  1
  H  H540  1  0.56047886  0.57382640  0.18316180  1
  Zn  Zn541  1  0.85632284  0.56185563  0.19059588  1
  O  O542  1  0.55897967  0.78231114  0.19029495  1
  C  C543  1  0.52448317  0.60261230  0.15767822  1
  O  O544  1  0.70797820  0.62616239  0.23101945  1
  C  C545  1  0.70064836  0.66859057  0.12148061  1
  C  C546  1  0.57312760  0.78631522  0.13000888  1
  H  H547  1  0.53247296  0.99835033  0.10724047  1
  O  O548  1  0.54866595  0.81875176  0.08975682  1
  O  O549  1  0.84081317  0.95134555  0.04653642  1
  H  H550  1  0.77810985  0.87610154  0.24408849  1
  N  N551  1  0.88133081  0.76250574  0.23869469  1
  H  H552  1  0.76582669  0.64397448  0.03474203  1
  H  H553  1  0.92546434  0.88390884  0.09091146  1
  C  C554  1  0.65623208  0.75453133  0.04122216  1
  C  C555  1  0.88077477  0.96050181  0.00167105  1
  H  H556  1  0.72164280  0.52968327  0.06643349  1
  Zn  Zn557  1  0.98415960  0.52001291  0.06379325  1
  C  C558  1  0.92560428  0.61285793  0.00090809  1
  C  C559  1  0.70394800  0.71819025  0.01932279  1
  O  O560  1  0.62586621  0.51729578  0.15211365  1
  O  O561  1  0.53109138  0.94660382  0.21355021  1
  C  C562  1  0.56874271  0.97933949  0.24161119  1
  H  H563  1  0.63872801  0.79023570  0.00513965  1
  H  H564  1  0.61575601  0.77568960  0.33439752  1
  C  C565  1  0.58424990  0.63566225  0.36563706  1
  O  O566  1  0.68149695  0.89195249  0.48549134  1
  C  C567  1  0.87175843  0.55655935  0.33473631  1
  C  C568  1  0.67073423  0.56886011  0.40709090  1
  H  H569  1  0.54335267  0.60630246  0.36555396  1
  Zn  Zn570  1  0.95926015  0.71661317  0.28251364  1
  C  C571  1  0.65006609  0.62270179  0.38185395  1
  O  O572  1  0.99260963  0.91412972  0.42782282  1
  O  O573  1  0.91063461  0.87239530  0.38130273  1
  C  C574  1  0.82083972  0.90828353  0.47836821  1
  H  H575  1  0.87532984  0.82422843  0.31423846  1
  N  N576  1  0.96546382  0.71831045  0.39006683  1
  C  C577  1  0.74583022  0.76083691  0.35242483  1
  H  H578  1  0.88757709  0.61121568  0.45882691  1
  O  O579  1  0.85173100  0.52641991  0.28485384  1
  O  O580  1  0.88865829  0.60566042  0.32850694  1
  H  H581  1  0.88709584  0.76745946  0.40607662  1
  O  O582  1  0.57894448  0.97868493  0.30288768  1
  H  H583  1  0.80006384  0.87535036  0.44520923  1
  O  O584  1  0.61994036  0.52037674  0.41824411  1
  N  N585  1  0.77623154  0.96632706  0.33716955  1
  C  C586  1  0.70469694  0.65994576  0.37035419  1
  C  C587  1  0.92908364  0.74806214  0.43285271  1
  C  C588  1  0.87420007  0.52943471  0.40615555  1
  H  H589  1  0.75339069  0.64747113  0.38349295  1
  C  C590  1  0.69031623  0.71503687  0.35625194  1
  O  O591  1  0.80057075  0.75323815  0.37147018  1
  O  O592  1  0.72613627  0.55690407  0.41559824  1
  O  O593  1  0.72659873  0.80823190  0.33701065  1
  H  H594  1  0.97710192  0.84458578  0.32442146  1
  C  C595  1  0.93473891  0.90315595  0.42579317  1
  C  C596  1  0.57641054  0.69304665  0.35382543  1
  C  C597  1  0.62577247  0.73084246  0.34688517  1
  C  C598  1  0.88374392  0.92502246  0.47553779  1
  C  C599  1  0.88342835  0.56471772  0.46345750  1
  H  H600  1  0.68183147  0.96750776  0.35092600  1
  H  H601  1  0.87046709  0.96949192  0.31477998  1
  C  C602  1  0.83330459  0.99093987  0.34537870  1
  C  C603  1  0.50509019  0.71779645  0.34588543  1
  C  C604  1  0.85757679  0.80959239  0.26283459  1
  C  C605  1  0.72901266  0.98962772  0.36954012  1
  H  H606  1  0.98763312  0.96404806  0.72531893  1
  C  C607  1  0.91089675  0.90558778  0.69220176  1
  H  H608  1  0.60461594  0.55091417  0.74398129  1
  C  C609  1  0.56533073  0.90816950  0.65843552  1
  O  O610  1  0.91098709  0.63338114  0.58217027  1
  H  H611  1  0.91618022  0.78811114  0.53664691  1
  O  O612  1  0.59089952  0.77782869  0.61968427  1
  C  C613  1  0.90368083  0.96929089  0.51967025  1
  H  H614  1  0.52819939  0.52965054  0.52695957  1
  H  H615  1  0.55107295  0.87018774  0.68999967  1
  C  C616  1  0.90700603  0.58314526  0.59363457  1
  N  N617  1  0.57735635  0.90131759  0.59519224  1
  C  C618  1  0.56705890  0.66483737  0.62165067  1
  O  O619  1  0.91658286  0.56714245  0.65313205  1
  O  O620  1  0.67107655  0.96024800  0.56478069  1
  C  C621  1  0.79853860  0.98474047  0.56058190  1
  C  C622  1  0.60231965  0.56792784  0.60890513  1
  H  H623  1  0.82458881  0.85246776  0.67485419  1
  C  C624  1  0.93654370  0.95477258  0.72008914  1
  H  H625  1  0.58512934  0.94626157  0.51039212  1
  H  H626  1  0.58376801  0.81558075  0.60755329  1
  O  O627  1  0.94355761  0.81293066  0.64838285  1
  C  C628  1  0.55092943  0.60729312  0.62575194  1
  C  C629  1  0.56215236  0.96627438  0.68430438  1
  C  C630  1  0.89140866  0.54087757  0.52844801  1
  C  C631  1  0.59638671  0.95167901  0.56698372  1
  C  C632  1  0.96125935  0.86249224  0.66630049  1
  C  C633  1  0.84666392  0.89242743  0.69527827  1
  H  H634  1  0.61304022  0.68119610  0.60271591  1
  O  O635  1  0.65335592  0.58328698  0.59179750  1
  O  O636  1  0.58452801  0.50819737  0.60362369  1
  C  C637  1  0.70682268  0.92623054  0.52140360  1
  C  C638  1  0.51474593  0.69782588  0.63851962  1
  C  C639  1  0.52427031  0.76072341  0.63660572  1
  N  N640  1  0.99125260  0.73545401  0.53831113  1
  C  C641  1  0.77850733  0.93820598  0.52114277  1
  C  C642  1  0.94410585  0.75800286  0.50187417  1
  O  O643  1  0.72079831  0.86396738  0.69551721  1
  H  H644  1  0.95481245  0.98002854  0.52470253  1
  C  C645  1  0.80626481  0.93372520  0.72330498  1
  C  C646  1  0.73593391  0.92141116  0.72866532  1
  H  H647  1  0.67798686  0.86017086  0.71625324  1
  C  C648  1  0.52014132  0.99826322  0.74919801  1
  C  C649  1  0.89350050  0.99456311  0.74803568  1
  C  C650  1  0.66042172  0.61082595  0.88615052  1
  H  H651  1  0.67740541  0.64814942  0.85393908  1
  H  H652  1  0.60591212  0.91371971  0.84351523  1
  O  O653  1  0.76471914  0.69996638  0.91622692  1
  N  N654  1  0.53317408  0.65556092  0.81918704  1
  C  C655  1  0.81171502  0.50330219  0.96609367  1
  C  C656  1  0.58136659  0.87296685  0.84287551  1
  C  C657  1  0.96719997  0.56273510  0.97202769  1
  C  C658  1  0.56098528  0.52492514  0.75773625  1
  C  C659  1  0.50004718  0.60637520  0.82792900  1
  H  H660  1  0.91211432  0.64618474  0.84219552  1
  C  C661  1  0.52586860  0.85692331  0.87873001  1
  N  N662  1  0.90784281  0.64611680  0.94913801  1
  N  N663  1  0.67371784  0.56258125  0.85512816  1
  C  C664  1  0.62132935  0.61057070  0.94415745  1
  O  O665  1  0.70682566  0.77492709  0.91779214  1
  C  C666  1  0.82845115  0.98604628  0.75175702  1
  C  C667  1  0.51643178  0.70835365  0.84274678  1
  C  C668  1  0.96009354  0.57289055  0.89294615  1
  N  N669  1  0.50699532  0.80376999  0.87792957  1
  N  N670  1  0.59707757  0.56640546  0.97973842  1
  H  H671  1  0.83602327  0.57842007  0.95185277  1
  N  N672  1  0.98605646  0.53001229  0.92017505  1
  C  C673  1  0.54268970  0.76774517  0.83980313  1
  C  C674  1  0.92682705  0.62286140  0.88875576  1
  C  C675  1  0.72885748  0.73364136  0.94458421  1
  C  C676  1  0.59211013  0.78868342  0.79347716  1
  N  N677  1  0.61330585  0.84047352  0.79781151  1
  O  O678  1  0.69553491  0.94896017  0.75384976  1
  C  C679  1  0.65226895  0.51540816  0.88814657  1
  C  C680  1  0.51019228  0.54768013  0.80002616  1
  O  O681  1  0.79983728  0.56189326  0.97876394  1
  C  C682  1  0.61592008  0.52134111  0.95103724  1
  H  H683  1  0.97333907  0.96234483  0.90118656  1
  C  C684  1  0.98292062  0.92988586  0.93791835  1
  H  H685  1  0.62133203  0.76520355  0.75450505  1
  H  H686  1  0.60663064  0.64411803  0.97930581  1
  C  C687  1  0.94284846  0.92276586  0.99307110  1
