# generated using pymatgen
data_Zn3H30C54(NO8)2
_symmetry_space_group_name_H-M   'P 1'
_cell_length_a   19.56203771
_cell_length_b   12.61178678
_cell_length_c   21.75314882
_cell_angle_alpha   90.00000000
_cell_angle_beta   90.00000000
_cell_angle_gamma   90.00000000
_symmetry_Int_Tables_number   1
_chemical_formula_structural   Zn3H30C54(NO8)2
_chemical_formula_sum   'Zn12 H120 C216 N8 O64'
_cell_volume   5366.76826116
_cell_formula_units_Z   4
loop_
 _symmetry_equiv_pos_site_id
 _symmetry_equiv_pos_as_xyz
  1  'x, y, z'
loop_
 _atom_site_type_symbol
 _atom_site_label
 _atom_site_symmetry_multiplicity
 _atom_site_fract_x
 _atom_site_fract_y
 _atom_site_fract_z
 _atom_site_occupancy
  C  C0  1  0.22895124  0.26236132  0.48161912  1
  C  C1  1  0.17619721  0.27153799  0.43407857  1
  C  C2  1  0.04216223  0.08534797  0.41849567  1
  H  H3  1  0.02800911  0.35411203  0.05430866  1
  O  O4  1  0.13832069  0.32782786  0.41076603  1
  C  C5  1  0.05806851  0.04568561  0.48111385  1
  C  C6  1  0.02593225  0.08305373  0.02006471  1
  O  O7  1  0.20120312  0.35928303  0.09481363  1
  H  H8  1  0.05715019  0.16792305  0.40833047  1
  O  O9  1  0.21608537  0.02150809  0.44200066  1
  C  C10  1  0.05132432  0.18783214  0.02809721  1
  H  H11  1  0.10430742  0.19765493  0.01266824  1
  C  C12  1  0.01127889  0.26871398  0.05054166  1
  O  O13  1  0.24913052  0.21375360  0.28633159  1
  C  C14  1  0.24652756  0.36418198  0.06116417  1
  C  C15  1  0.24719923  0.04525478  0.48623670  1
  H  H16  1  0.00722872  0.48420489  0.43007349  1
  C  C17  1  0.00778950  0.02089361  0.37899895  1
  H  H18  1  0.09184060  0.26327155  0.77368318  1
  C  C19  1  0.01858112  0.18351038  0.71494405  1
  H  H20  1  0.12518319  0.41119511  0.80663706  1
  C  C21  1  0.09180158  0.11209201  0.52541790  1
  C  C22  1  0.04196218  0.26960123  0.74861660  1
  C  C23  1  0.12482031  0.35661945  0.92712587  1
  O  O24  1  0.18367059  0.00922274  0.68338794  1
  C  C25  1  0.07067011  0.28686466  0.91032878  1
  H  H26  1  0.15142776  0.12688842  0.61078153  1
  C  C27  1  0.00583434  0.36775657  0.74776515  1
  C  C28  1  0.19147319  0.32398785  0.91331433  1
  H  H29  1  0.18350380  0.40964873  0.51957438  1
  O  O30  1  0.22187921  0.43691132  0.72187763  1
  C  C31  1  0.03547872  0.42439003  0.51616969  1
  C  C32  1  0.08693772  0.19238377  0.88208854  1
  H  H33  1  0.04637506  0.10392643  0.71328263  1
  C  C34  1  0.12289978  0.07671329  0.57843405  1
  H  H35  1  0.04614890  0.14221399  0.86368208  1
  H  H36  1  0.11989863  0.42835544  0.95356940  1
  H  H37  1  0.18311312  0.09832316  0.85443143  1
  N  N38  1  0.20984720  0.23177898  0.88720134  1
  C  C39  1  0.15754705  0.17018959  0.87558981  1
  H  H40  1  0.05132173  0.34007330  0.60493796  1
  C  C41  1  0.09233077  0.47813712  0.80092576  1
  H  H42  1  0.24178613  0.35989246  0.92207395  1
  C  C43  1  0.02687231  0.46468387  0.77569991  1
  C  C44  1  0.02236742  0.34550452  0.56146663  1
  H  H45  1  0.09678789  0.19659682  0.51268370  1
  C  C46  1  0.23053252  0.46863350  0.77299964  1
  C  C47  1  0.22367642  0.34561380  0.52875299  1
  H  H48  1  0.00045778  0.48437548  0.90428916  1
  O  O49  1  0.18537634  0.86149632  0.32537498  1
  H  H50  1  0.15347710  0.67476957  0.19478093  1
  C  C51  1  0.06823287  0.81820652  0.33995171  1
  C  C52  1  0.05557617  0.74136878  0.39073666  1
  O  O53  1  0.01359904  0.67557211  0.38930053  1
  H  H54  1  0.20363732  0.68180800  0.45132564  1
  H  H55  1  0.13646557  0.95058253  0.38125724  1
  C  C56  1  0.00746964  0.86462024  0.30905719  1
  Zn  Zn57  1  0.07362249  0.72661744  0.26294978  1
  Zn  Zn58  1  0.22435047  0.52216165  0.24406684  1
  O  O59  1  0.20736446  0.59817103  0.37015955  1
  C  C60  1  0.13045078  0.88122113  0.34403145  1
  H  H61  1  0.12357370  0.50992297  0.42582062  1
  O  O62  1  0.13398131  0.61279595  0.21534706  1
  H  H63  1  0.02382624  0.89016806  0.45852752  1
  C  C64  1  0.13182205  0.54490791  0.47110090  1
  H  H65  1  0.08696679  0.74614597  0.43476889  1
  C  C66  1  0.04843904  0.93525703  0.49531779  1
  C  C67  1  0.17346151  0.63449358  0.48413529  1
  O  O68  1  0.21845184  0.62440269  0.95808495  1
  N  N69  1  0.18345257  0.67912480  0.53832938  1
  O  O70  1  0.13426888  0.84523366  0.67148659  1
  C  C71  1  0.11577436  0.57607622  0.82411368  1
  C  C72  1  0.15346563  0.63426171  0.58641026  1
  H  H73  1  0.16037179  0.73796120  0.85999775  1
  H  H74  1  0.16320609  0.67234363  0.63151759  1
  C  C75  1  0.09131500  0.50930725  0.52036562  1
  H  H76  1  0.07398302  0.53694683  0.62188764  1
  O  O77  1  0.03043275  0.69547963  0.79973393  1
  C  C78  1  0.08408541  0.68008908  0.82184259  1
  C  C79  1  0.07345056  0.89813614  0.54945819  1
  C  C80  1  0.10440568  0.55436690  0.57991204  1
  H  H81  1  0.07693719  0.59446985  0.92363918  1
  O  O82  1  0.11927718  0.77241279  0.84819894  1
  H  H83  1  0.03472278  0.90140439  0.83072325  1
  H  H84  1  0.02340500  0.74665781  0.92058147  1
  H  H85  1  0.06699857  0.81523116  0.56569474  1
  O  O86  1  0.10527308  0.62526179  0.95272173  1
  C  C87  1  0.17777339  0.55926790  0.86137437  1
  C  C88  1  0.14437601  0.92837776  0.64620982  1
  C  C89  1  0.17294240  0.60773553  0.92463932  1
  C  C90  1  0.11190206  0.96595507  0.58957733  1
  C  C91  1  0.23415148  0.51049714  0.83317422  1
  H  H92  1  0.20334376  0.96626610  0.71396311  1
  H  H93  1  0.24781312  0.75685406  0.71056809  1
  Zn  Zn94  1  0.24896243  0.81901544  0.54154272  1
  O  O95  1  0.12858607  0.99305758  0.97785796  1
  H  H96  1  0.05112990  0.91258378  0.98605603  1
  C  C97  1  0.06984640  0.99792168  0.99328497  1
  C  C98  1  0.37443266  0.33354255  0.18945048  1
  C  C99  1  0.37196166  0.13227860  0.14109673  1
  C  C100  1  0.47000346  0.17583874  0.49431560  1
  C  C101  1  0.30293445  0.37375150  0.01947959  1
  C  C102  1  0.41875177  0.30726001  0.14252360  1
  H  H103  1  0.32543710  0.06077689  0.29530923  1
  C  C104  1  0.41760279  0.20884912  0.11398595  1
  C  C105  1  0.40289480  0.19719648  0.46770638  1
  H  H106  1  0.37611557  0.40868508  0.21816750  1
  H  H107  1  0.45161825  0.21416415  0.28501540  1
  C  C108  1  0.46758497  0.13032355  0.27201454  1
  C  C109  1  0.32608337  0.15472083  0.18770011  1
  O  O110  1  0.39342513  0.21335708  0.41268667  1
  C  C111  1  0.32812535  0.25792338  0.21128077  1
  C  C112  1  0.28155689  0.29050025  0.26176490  1
  H  H113  1  0.28637149  0.09764140  0.20517567  1
  C  C114  1  0.43521947  0.04681018  0.31772881  1
  C  C115  1  0.27580747  0.17417520  0.49006370  1
  H  H116  1  0.43682953  0.11909450  0.23062359  1
  H  H117  1  0.45034221  0.03236099  0.04050015  1
  O  O118  1  0.27747621  0.38348835  0.28201568  1
  H  H119  1  0.36961736  0.04941364  0.12582853  1
  C  C120  1  0.47627786  0.19125477  0.06493273  1
  H  H121  1  0.31120043  0.19214239  0.00701175  1
  C  C122  1  0.36524923  0.02602151  0.32475492  1
  Zn  Zn123  1  0.26038532  0.21382983  0.39047601  1
  Zn  Zn124  1  0.49681951  0.40475372  0.10713026  1
  C  C125  1  0.48977298  0.09365740  0.03665751  1
  C  C126  1  0.33381211  0.47398027  0.00230851  1
  C  C127  1  0.39697788  0.37999769  0.84550254  1
  C  C128  1  0.35889516  0.16696013  0.57811825  1
  C  C129  1  0.30308332  0.14753564  0.61835464  1
  C  C130  1  0.37814952  0.10129730  0.70456833  1
  C  C131  1  0.36680191  0.48321797  0.94562683  1
  C  C132  1  0.39552759  0.08210450  0.77247595  1
  C  C133  1  0.31398316  0.11465628  0.67848172  1
  H  H134  1  0.40633636  0.30921696  0.73158604  1
  C  C135  1  0.37174318  0.38573870  0.90740495  1
  C  C136  1  0.45387440  0.49001840  0.62507864  1
  C  C137  1  0.47701820  0.49659576  0.55916684  1
  C  C138  1  0.41811281  0.38612765  0.71214106  1
  O  O139  1  0.26179281  0.36279987  0.56871308  1
  C  C140  1  0.48374577  0.14819784  0.55689987  1
  C  C141  1  0.42873685  0.47974384  0.75124135  1
  C  C142  1  0.42906322  0.39513002  0.64823337  1
  H  H143  1  0.39805468  0.30624050  0.81659674  1
  C  C144  1  0.42578049  0.14068375  0.60095422  1
  C  C145  1  0.41655876  0.47641334  0.81782878  1
  H  H146  1  0.48481051  0.10495098  0.68346957  1
  H  H147  1  0.36993275  0.20586787  0.91178748  1
  C  C148  1  0.35808100  0.28017673  0.93394208  1
  O  O149  1  0.45395590  0.05710790  0.78920287  1
  C  C150  1  0.43297257  0.11109410  0.66360525  1
  H  H151  1  0.42633600  0.32292053  0.61890880  1
  H  H152  1  0.25187123  0.16354574  0.60087484  1
  O  O153  1  0.34693505  0.08210122  0.80865195  1
  O  O154  1  0.46055232  0.42155354  0.52629263  1
  C  C155  1  0.32337662  0.27432326  0.98754086  1
  H  H156  1  0.26770291  0.10303266  0.70932370  1
  C  C157  1  0.34474797  0.20353626  0.51474903  1
  H  H158  1  0.34731297  0.29446518  0.51513326  1
  C  C159  1  0.43677117  0.60294676  0.10936678  1
  C  C160  1  0.44464923  0.59946972  0.30231432  1
  H  H161  1  0.33350592  0.54685719  0.03196412  1
  C  C162  1  0.37681340  0.58834042  0.27862310  1
  C  C163  1  0.42733710  0.85345849  0.22644860  1
  C  C164  1  0.36865790  0.59137294  0.21174144  1
  C  C165  1  0.32522811  0.59770745  0.32672300  1
  C  C166  1  0.36798248  0.60997276  0.38168372  1
  O  O167  1  0.36664759  0.89774559  0.03020910  1
  H  H168  1  0.38321439  0.75312080  0.10810172  1
  C  C169  1  0.46534185  0.93075673  0.40343708  1
  H  H170  1  0.29179752  0.93100175  0.37429341  1
  C  C171  1  0.35199633  0.86875079  0.22276700  1
  H  H172  1  0.35022663  0.61857847  0.42795395  1
  O  O173  1  0.43049842  0.75703774  0.47832795  1
  H  H174  1  0.32541575  0.84308036  0.26620530  1
  O  O175  1  0.31648395  0.89643670  0.18007539  1
  C  C176  1  0.41394230  0.85363650  0.00373479  1
  O  O177  1  0.32205038  0.79356857  0.45334506  1
  C  C178  1  0.39702570  0.89909888  0.40367882  1
  C  C179  1  0.43647994  0.60369382  0.36609471  1
  H  H180  1  0.43659762  0.92034538  0.13328422  1
  C  C181  1  0.38512551  0.80983186  0.44925314  1
  C  C182  1  0.41468295  0.70029629  0.08175616  1
  O  O183  1  0.42637108  0.57813782  0.17837942  1
  C  C184  1  0.34697719  0.94843815  0.36942774  1
  O  O185  1  0.31292343  0.60474533  0.18739140  1
  C  C186  1  0.47318427  0.54415649  0.06416523  1
  H  H187  1  0.43416822  0.78202334  0.31877024  1
  H  H188  1  0.49305890  0.59523695  0.27738403  1
  C  C189  1  0.43634624  0.73378946  0.02462395  1
  Zn  Zn190  1  0.49725378  0.62494674  0.44461203  1
  C  C191  1  0.48886888  0.56643568  0.00204066  1
  C  C192  1  0.48347198  0.99754515  0.35555434  1
  C  C193  1  0.46582783  0.88158659  0.17087877  1
  C  C194  1  0.25009711  0.58946086  0.33228222  1
  C  C195  1  0.46192243  0.80610406  0.27577575  1
  H  H196  1  0.28407266  0.50975943  0.85725482  1
  C  C197  1  0.47155340  0.67067567  0.98290604  1
  Zn  Zn198  1  0.47515127  0.84218586  0.78630755  1
  C  C199  1  0.40789714  0.85161068  0.67638714  1
  C  C200  1  0.37003298  0.85903384  0.61748225  1
  C  C201  1  0.47681438  0.89006506  0.68450719  1
  H  H202  1  0.41932439  0.54847058  0.84635383  1
  C  C203  1  0.30729047  0.81532778  0.63116207  1
  H  H204  1  0.38921376  0.88934520  0.57478156  1
  C  C205  1  0.29684734  0.78350527  0.69096609  1
  C  C206  1  0.37564153  0.77066088  0.78836412  1
  O  O207  1  0.35304787  0.72282972  0.83090675  1
  O  O208  1  0.44031689  0.89171204  0.95680715  1
  H  H209  1  0.46509294  0.64495122  0.75247708  1
  H  H210  1  0.47271354  0.66285722  0.64073311  1
  C  C211  1  0.45342176  0.57599535  0.72254920  1
  C  C212  1  0.45989432  0.58493345  0.66117821  1
  C  C213  1  0.35963988  0.80661200  0.72411585  1
  H  H214  1  0.48270165  0.69547040  0.93606059  1
  H  H215  1  0.39037363  0.56048147  0.93036154  1
  O  O216  1  0.26565695  0.99024384  0.52965985  1
  H  H217  1  0.63066066  0.32348953  0.03423742  1
  H  H218  1  0.63547545  0.16761917  0.43224635  1
  C  C219  1  0.62169032  0.19204997  0.18919972  1
  C  C220  1  0.66626973  0.25850511  0.15226428  1
  C  C221  1  0.52748257  0.27176794  0.06134635  1
  O  O222  1  0.64779610  0.43329066  0.18994180  1
  C  C223  1  0.59944119  0.15863381  0.00923735  1
  O  O224  1  0.53727803  0.29677012  0.23666117  1
  C  C225  1  0.59197109  0.16060203  0.46434050  1
  C  C226  1  0.68874670  0.08125920  0.13291201  1
  C  C227  1  0.52220866  0.17830188  0.45032169  1
  C  C228  1  0.56442426  0.21659101  0.22782171  1
  O  O229  1  0.62560379  0.46629570  0.32097947  1
  H  H230  1  0.73893592  0.21293063  0.07394418  1
  O  O231  1  0.54740939  0.47344945  0.38901405  1
  C  C232  1  0.59000031  0.26096501  0.03472857  1
  C  C233  1  0.63207025  0.42648006  0.48676200  1
  C  C234  1  0.64106505  0.08537396  0.18179325  1
  C  C235  1  0.70831704  0.19076459  0.11574348  1
  C  C236  1  0.67202851  0.37853857  0.14706061  1
  O  O237  1  0.53658995  0.12174617  0.25796982  1
  H  H238  1  0.62118613  0.01880936  0.20834612  1
  H  H239  1  0.71692526  0.00903151  0.12063279  1
  H  H240  1  0.51294737  0.20944081  0.40372453  1
  C  C241  1  0.66034037  0.44740977  0.42746492  1
  C  C242  1  0.73084826  0.44895347  0.42942941  1
  O  O243  1  0.69941079  0.42647636  0.10276039  1
  C  C244  1  0.55319716  0.07643432  0.00868018  1
  C  C245  1  0.60690078  0.46277527  0.37541260  1
  H  H246  1  0.53650070  0.00472909  0.34984254  1
  C  C247  1  0.66066105  0.31405939  0.72321672  1
  C  C248  1  0.60152017  0.29286690  0.68271905  1
  Zn  Zn249  1  0.66616886  0.35624110  0.61004559  1
  C  C250  1  0.55275235  0.12945346  0.57341200  1
  C  C251  1  0.60030768  0.13645552  0.52681865  1
  O  O252  1  0.54302052  0.27289849  0.67889611  1
  C  C253  1  0.67567390  0.12386305  0.54680873  1
  C  C254  1  0.72685700  0.32739390  0.81463525  1
  H  H255  1  0.71512142  0.13119626  0.72422387  1
  O  O256  1  0.71662427  0.20209020  0.97702463  1
  O  O257  1  0.67977016  0.04163997  0.96171983  1
  C  C258  1  0.66360378  0.29465527  0.78952435  1
  C  C259  1  0.73501739  0.34930365  0.70657422  1
  O  O260  1  0.60467397  0.41448345  0.88002893  1
  H  H261  1  0.61704032  0.26574122  0.81425552  1
  H  H262  1  0.56708949  0.11341241  0.62202672  1
  C  C263  1  0.70707143  0.05342274  0.74605715  1
  O  O264  1  0.68808081  0.11140419  0.60232633  1
  C  C265  1  0.69055883  0.41210677  0.52522049  1
  H  H266  1  0.68099670  0.48171847  0.74735775  1
  Zn  Zn267  1  0.71053430  0.30232861  0.90610945  1
  N  N268  1  0.73882550  0.06422577  0.79909543  1
  C  C269  1  0.66935853  0.12889113  0.98217871  1
  O  O270  1  0.71663279  0.12782414  0.50469865  1
  O  O271  1  0.67331818  0.49683055  0.93927226  1
  C  C272  1  0.62894730  0.49694787  0.89985200  1
  H  H273  1  0.56000683  0.00189321  0.98701326  1
  H  H274  1  0.57776067  0.40822861  0.50017176  1
  C  C275  1  0.67333715  0.78690468  0.48564114  1
  H  H276  1  0.50380278  0.89382228  0.43326646  1
  O  O277  1  0.66897945  0.73263241  0.25959497  1
  O  O278  1  0.67436229  0.80543518  0.16697820  1
  O  O279  1  0.61828675  0.88748802  0.40774100  1
  H  H280  1  0.56367967  0.88601003  0.12225884  1
  H  H281  1  0.56246721  0.75982423  0.31261906  1
  C  C282  1  0.56641959  0.81303067  0.21631893  1
  C  C283  1  0.62112070  0.80302500  0.43294425  1
  O  O284  1  0.58666958  0.72461746  0.41452472  1
  Zn  Zn285  1  0.68793540  0.56125710  0.25619560  1
  C  C286  1  0.53328595  0.79259227  0.27004092  1
  C  C287  1  0.53401560  0.86056387  0.16526981  1
  C  C288  1  0.64257953  0.78583212  0.21289826  1
  H  H289  1  0.68661075  0.95646636  0.48597656  1
  H  H290  1  0.66539211  0.60722452  0.49556125  1
  C  C291  1  0.67057654  0.96361283  0.72600915  1
  H  H292  1  0.63141595  0.87447730  0.90425066  1
  C  C293  1  0.62934739  0.74526796  0.67893074  1
  H  H294  1  0.73788545  0.61266659  0.58639617  1
  H  H295  1  0.61009726  0.81854042  0.65652157  1
  C  C296  1  0.66179893  0.75262047  0.73616809  1
  C  C297  1  0.67920216  0.65567940  0.76357593  1
  H  H298  1  0.51412721  0.51058339  0.97359931  1
  C  C299  1  0.52823500  0.70631199  0.81702708  1
  C  C300  1  0.66623378  0.55992264  0.73156593  1
  O  O301  1  0.52597281  0.92970012  0.66018636  1
  H  H302  1  0.53223355  0.53226237  0.80430522  1
  C  C303  1  0.67697990  0.86625326  0.76041337  1
  H  H304  1  0.67382565  0.68523784  0.94053869  1
  H  H305  1  0.59327315  0.63461854  0.60426993  1
  C  C306  1  0.61485115  0.64675948  0.65174209  1
  H  H307  1  0.70247993  0.64694150  0.80946720  1
  C  C308  1  0.73915101  0.87263715  0.56467551  1
  C  C309  1  0.62987828  0.69378595  0.90441564  1
  C  C310  1  0.54911330  0.60238852  0.82999422  1
  N  N311  1  0.63511454  0.55312469  0.67671554  1
  C  C312  1  0.71331417  0.87571399  0.81607748  1
  C  C313  1  0.60160003  0.60626890  0.87581314  1
  C  C314  1  0.55313055  0.79658489  0.84446693  1
  H  H315  1  0.72486915  0.80431447  0.84335455  1
  C  C316  1  0.60842746  0.79904254  0.88800366  1
  H  H317  1  0.64856603  0.96740388  0.67884075  1
  C  C318  1  0.70100771  0.88034202  0.51075779  1
  C  C319  1  0.72359566  0.68661375  0.56621275  1
  C  C320  1  0.68635260  0.68695414  0.51108631  1
  C  C321  1  0.73981512  0.97706722  0.83320534  1
  O  O322  1  0.51170927  0.57324318  0.53671771  1
  C  C323  1  0.75117989  0.41399256  0.48987397  1
  C  C324  1  0.94248036  0.34821495  0.45423593  1
  H  H325  1  0.90268726  0.34019744  0.41497152  1
  H  H326  1  0.88662689  0.07787044  0.44365757  1
  C  C327  1  0.89809949  0.33761106  0.08505862  1
  C  C328  1  0.99644842  0.42187118  0.46145296  1
  H  H329  1  0.86716532  0.12230578  0.07492724  1
  C  C330  1  0.95639953  0.05841310  0.03460515  1
  C  C331  1  0.94380428  0.24245155  0.06328382  1
  O  O332  1  0.91998222  0.42801334  0.09587755  1
  C  C333  1  0.91579222  0.14118977  0.05579529  1
  O  O334  1  0.83698829  0.32165192  0.09585773  1
  C  C335  1  0.78191734  0.47077100  0.37484938  1
  O  O336  1  0.83682734  0.42500364  0.36941587  1
  Zn  Zn337  1  0.80171178  0.49870723  0.11657874  1
  C  C338  1  0.96431588  0.41632607  0.90696564  1
  C  C339  1  0.95725409  0.19204254  0.68487017  1
  O  O340  1  0.87181642  0.11332914  0.62816364  1
  N  N341  1  0.92242837  0.29360242  0.50329780  1
  H  H342  1  0.91664187  0.44748188  0.71492615  1
  C  C343  1  0.91779374  0.28667557  0.68152191  1
  H  H344  1  0.83186950  0.19016866  0.93762756  1
  H  H345  1  0.96167664  0.15850527  0.94203521  1
  C  C346  1  0.89429236  0.42122017  0.90045345  1
  H  H347  1  0.86913727  0.28727253  0.65436979  1
  H  H348  1  0.93880235  0.22738140  0.58297126  1
  N  N349  1  0.84842501  0.34308872  0.90556269  1
  C  C350  1  0.92916037  0.09735532  0.65131979  1
  C  C351  1  0.87224736  0.24817550  0.92242746  1
  C  C352  1  0.94229052  0.37317966  0.71418348  1
  C  C353  1  0.76654263  0.38795363  0.64785101  1
  H  H354  1  0.86442511  0.49595371  0.88743525  1
  C  C355  1  0.94267635  0.23342932  0.92448043  1
  O  O356  1  0.81179912  0.42840996  0.62166068  1
  H  H357  1  0.82452888  0.36724818  0.77246908  1
  C  C358  1  0.96327804  0.28647231  0.55136601  1
  C  C359  1  0.99296781  0.31332115  0.91517193  1
  O  O360  1  0.96304207  0.01406701  0.64675451  1
  C  C361  1  0.76987147  0.34562019  0.76540108  1
  H  H362  1  0.80632089  0.39498356  0.50334556  1
  O  O363  1  0.97271941  0.00566737  0.82487470  1
  H  H364  1  0.93215306  0.48523489  0.58495988  1
  C  C365  1  0.83584537  0.78808059  0.46159578  1
  O  O366  1  0.84602435  0.61554842  0.05592588  1
  H  H367  1  0.91651032  0.96172879  0.33106059  1
  H  H368  1  0.93541072  0.97758458  0.02976268  1
  C  C369  1  0.97291703  0.95615374  0.34268365  1
  C  C370  1  0.97398097  0.81447871  0.25445904  1
  O  O371  1  0.77037764  0.57988075  0.19040577  1
  C  C372  1  0.82046945  0.69851101  0.03069300  1
  N  N373  1  0.83955710  0.95622309  0.40906050  1
  H  H374  1  0.81112384  0.71058553  0.46539265  1
  O  O375  1  0.76440493  0.53723216  0.33364794  1
  H  H376  1  0.76356647  0.64592775  0.16935348  1
  O  O377  1  0.92743145  0.80226320  0.22054982  1
  C  C378  1  0.82306490  0.85244167  0.40998895  1
  H  H379  1  0.79513844  0.82930829  0.36924502  1
  H  H380  1  0.89098737  0.61527400  0.49831631  1
  C  C381  1  0.88087871  0.99326080  0.45272133  1
  O  O382  1  0.76147257  0.72674469  0.03509841  1
  H  H383  1  0.92740399  0.86904266  0.62744011  1
  C  C384  1  0.86556422  0.76465996  0.98787817  1
  C  C385  1  0.79072849  0.78628263  0.65771294  1
  N  N386  1  0.95553282  0.59798482  0.64529594  1
  C  C387  1  0.80475834  0.70028862  0.69987347  1
  H  H388  1  0.78378147  0.62201161  0.68939857  1
  C  C389  1  0.97269101  0.77869522  0.93603477  1
  C  C390  1  0.98850179  0.93536408  0.85919549  1
  C  C391  1  0.81435120  0.88385373  0.68210277  1
  C  C392  1  0.86446277  0.81507289  0.77329479  1
  C  C393  1  0.83945573  0.72141181  0.75334185  1
  H  H394  1  0.88785718  0.82531707  0.81778736  1
  C  C395  1  0.84497966  0.61767140  0.79620890  1
  H  H396  1  0.87052527  0.99370890  0.90143845  1
  H  H397  1  0.78836412  0.89263516  0.97373869  1
  C  C398  1  0.93233670  0.78047052  0.61666821  1
  C  C399  1  0.94988606  0.87366156  0.90887448  1
  H  H400  1  0.76209980  0.99204734  0.87754170  1
  C  C401  1  0.93146835  0.57334021  0.58806325  1
  C  C402  1  0.95618428  0.70066080  0.65653708  1
  C  C403  1  0.85008141  0.90738391  0.73605362  1
  O  O404  1  0.86279165  0.62754466  0.84958857  1
  C  C405  1  0.88364300  0.91371713  0.92300523  1
  C  C406  1  0.90888621  0.75337432  0.55836374  1
  C  C407  1  0.92998532  0.72326600  0.97439212  1
  C  C408  1  0.75144580  0.77820616  0.59561662  1
  O  O409  1  0.83233905  0.53541810  0.76895943  1
  C  C410  1  0.84100993  0.85989569  0.96343193  1
  C  C411  1  0.90566034  0.64331371  0.54373687  1
  H  H412  1  0.86560822  0.99171533  0.74782183  1
  Zn  Zn413  1  0.79364900  0.99483250  0.60848817  1
  H  H414  1  0.97713527  0.70880368  0.70430490  1
  H  H415  1  0.99569399  0.53812492  0.77078065  1
  H  H416  1  0.94665882  0.97223727  0.53328113  1
  C  C417  1  0.88159571  0.82773493  0.50961760  1
  C  C418  1  0.90749936  0.93216621  0.50136373  1
  H  H419  1  0.94345181  0.64250966  0.99271706  1
