# generated using pymatgen
data_ZnH6(C3N2)2
_symmetry_space_group_name_H-M   'P 1'
_cell_length_a   21.83444282
_cell_length_b   16.69315590
_cell_length_c   23.87297766
_cell_angle_alpha   90.00000000
_cell_angle_beta   90.00000000
_cell_angle_gamma   90.00000000
_symmetry_Int_Tables_number   1
_chemical_formula_structural   ZnH6(C3N2)2
_chemical_formula_sum   'Zn40 H240 C240 N160'
_cell_volume   8701.36035857
_cell_formula_units_Z   40
loop_
 _symmetry_equiv_pos_site_id
 _symmetry_equiv_pos_as_xyz
  1  'x, y, z'
loop_
 _atom_site_type_symbol
 _atom_site_label
 _atom_site_symmetry_multiplicity
 _atom_site_fract_x
 _atom_site_fract_y
 _atom_site_fract_z
 _atom_site_occupancy
  N  N0  1  0.46246261  0.19267478  0.06113444  1
  H  H1  1  0.39974741  0.34962286  0.01303387  1
  H  H2  1  0.03485609  0.35231937  0.23178870  1
  C  C3  1  0.09159457  0.08035747  0.05071003  1
  C  C4  1  0.06003376  0.45753716  0.17634743  1
  H  H5  1  0.31383590  0.33838988  0.17603632  1
  C  C6  1  0.32819007  0.36076461  0.13432656  1
  C  C7  1  0.46981879  0.12585560  0.03265984  1
  H  H8  1  0.44160171  0.07444154  0.04355024  1
  H  H9  1  0.04979163  0.38901753  0.08879819  1
  N  N10  1  0.43326495  0.18771195  0.19387327  1
  H  H11  1  0.28060134  0.12978650  0.19161662  1
  N  N12  1  0.06970463  0.05328101  0.18473986  1
  C  C13  1  0.01869847  0.06880064  0.15440788  1
  H  H14  1  0.01495304  0.06045884  0.10623247  1
  N  N15  1  0.34093107  0.43160023  0.05856284  1
  N  N16  1  0.23800294  0.07728119  0.12021384  1
  C  C17  1  0.05499628  0.06499343  0.23886202  1
  C  C18  1  0.30375307  0.11945074  0.05627010  1
  N  N19  1  0.36387207  0.31703845  0.09959901  1
  C  C20  1  0.15388110  0.17506677  0.22927242  1
  H  H21  1  0.08709493  0.14268932  0.06832821  1
  Zn  Zn22  1  0.15937038  0.02271744  0.15497987  1
  N  N23  1  0.32202449  0.14496128  0.10532875  1
  Zn  Zn24  1  0.39538960  0.20981186  0.11751397  1
  C  C25  1  0.31369023  0.43484829  0.10747693  1
  H  H26  1  0.32758283  0.13231303  0.01756981  1
  C  C27  1  0.37064258  0.36121752  0.05111756  1
  C  C28  1  0.24576623  0.07670485  0.06484643  1
  C  C29  1  0.15823680  0.44934596  0.19878700  1
  C  C30  1  0.48968789  0.16189265  0.19610224  1
  C  C31  1  0.07102499  0.38860294  0.21150409  1
  H  H32  1  0.28197918  0.48687682  0.11957601  1
  N  N33  1  0.12988834  0.38849143  0.22671747  1
  H  H34  1  0.11459128  0.19955498  0.20490155  1
  C  C35  1  0.28178542  0.11601949  0.14593123  1
  N  N36  1  0.17894467  0.10038378  0.22141760  1
  H  H37  1  0.21583411  0.04467661  0.03413101  1
  N  N38  1  0.11846425  0.01828558  0.07719828  1
  H  H39  1  0.01290916  0.47891860  0.16432903  1
  C  C40  1  0.41183753  0.20493659  0.24645626  1
  H  H41  1  0.34864016  0.49454892  0.18871457  1
  H  H42  1  0.20653562  0.46535556  0.20808587  1
  H  H43  1  0.21698065  0.49835256  0.05411928  1
  N  N44  1  0.11604127  0.49075025  0.16967246  1
  C  C45  1  0.00426800  0.41194937  0.08202263  1
  H  H46  1  0.24724413  0.03311664  0.26747069  1
  H  H47  1  0.12122102  0.00701226  0.32674555  1
  N  N48  1  0.04207251  0.17562937  0.37456959  1
  H  H49  1  0.15455874  0.37010213  0.43910387  1
  H  H50  1  0.03133107  0.36288156  0.34099180  1
  Zn  Zn51  1  0.01039883  0.06873222  0.39816292  1
  H  H52  1  0.46331529  0.46718759  0.48620600  1
  N  N53  1  0.09819488  0.27111488  0.33945547  1
  N  N54  1  0.18209432  0.21437002  0.27119339  1
  N  N55  1  0.41193674  0.26847760  0.42057844  1
  C  C56  1  0.30290311  0.32063559  0.27885986  1
  N  N57  1  0.45597772  0.18700695  0.28273102  1
  H  H58  1  0.13588080  0.14734161  0.34568055  1
  C  C59  1  0.33061064  0.33848635  0.45379714  1
  C  C60  1  0.27891884  0.43332167  0.31955366  1
  H  H61  1  0.25141870  0.18488429  0.32953803  1
  H  H62  1  0.08782283  0.05717820  0.27204525  1
  H  H63  1  0.47441966  0.00039095  0.32049860  1
  C  C64  1  0.22117015  0.09118041  0.26121156  1
  H  H65  1  0.46325488  0.26919559  0.49919692  1
  N  N66  1  0.48576839  0.08742109  0.39701050  1
  C  C67  1  0.22393583  0.16294480  0.29259067  1
  N  N68  1  0.25739936  0.36116181  0.30157593  1
  C  C69  1  0.35664211  0.37152233  0.28206843  1
  N  N70  1  0.34035083  0.43773107  0.30809374  1
  C  C71  1  0.42052750  0.28432533  0.47468611  1
  C  C72  1  0.04570637  0.30275870  0.35360467  1
  C  C73  1  0.35913109  0.30668719  0.40507909  1
  H  H74  1  0.34490395  0.30916528  0.36278521  1
  Zn  Zn75  1  0.16494597  0.33229576  0.29669312  1
  H  H76  1  0.28507535  0.36899762  0.46075087  1
  N  N77  1  0.08985382  0.01019016  0.41219786  1
  C  C78  1  0.09814652  0.19256125  0.35168728  1
  N  N79  1  0.14675517  0.42393861  0.35488322  1
  C  C80  1  0.14740446  0.42265587  0.41187523  1
  H  H81  1  0.36448555  0.22665602  0.25882367  1
  C  C82  1  0.48858455  0.01784862  0.36458288  1
  H  H83  1  0.24762655  0.47972659  0.33770735  1
  Zn  Zn84  1  0.46584879  0.19986486  0.36840716  1
  N  N85  1  0.37178787  0.32830172  0.49440061  1
  H  H86  1  0.48300719  0.37821705  0.32473832  1
  H  H87  1  0.32086699  0.01288926  0.47293762  1
  C  C88  1  0.00799107  0.24024954  0.37991270  1
  N  N89  1  0.14106804  0.49791547  0.43116230  1
  C  C90  1  0.13454152  0.49842477  0.33832262  1
  H  H91  1  0.40122535  0.36180356  0.26022564  1
  H  H92  1  0.29258838  0.26433490  0.25880101  1
  N  N93  1  0.28226396  0.40573702  0.56977161  1
  C  C94  1  0.17904392  0.40168230  0.56657890  1
  H  H95  1  0.45635035  0.27894216  0.64750954  1
  H  H96  1  0.45766650  0.10257385  0.65303570  1
  Zn  Zn97  1  0.37089129  0.37586788  0.57630141  1
  H  H98  1  0.24015106  0.30886098  0.61370059  1
  H  H99  1  0.13153326  0.38048805  0.56750420  1
  N  N100  1  0.08481887  0.09437802  0.71929085  1
  C  C101  1  0.41030580  0.28032667  0.73513454  1
  N  N102  1  0.07398791  0.42045268  0.72522981  1
  H  H103  1  0.10860241  0.33155667  0.66584597  1
  Zn  Zn104  1  0.15524505  0.02937301  0.73842887  1
  N  N105  1  0.37714961  0.34350168  0.65998735  1
  C  C106  1  0.02779026  0.47354658  0.72180403  1
  C  C107  1  0.33863204  0.35768328  0.70310775  1
  C  C108  1  0.04117591  0.07595583  0.67933772  1
  N  N109  1  0.45902580  0.42621884  0.57253953  1
  N  N110  1  0.19892371  0.46922113  0.54243475  1
  H  H111  1  0.29436762  0.39075211  0.69644610  1
  C  C112  1  0.42479179  0.30090749  0.67857711  1
  C  C113  1  0.23428192  0.36559256  0.58776867  1
  H  H114  1  0.04372943  0.02592025  0.65102014  1
  C  C115  1  0.07696663  0.38054000  0.67679875  1
  N  N116  1  0.35649630  0.31447417  0.74864617  1
  H  H117  1  0.21293222  0.20766911  0.73736136  1
  N  N118  1  0.03249479  0.40927477  0.64030377  1
  C  C119  1  0.47594585  0.45899356  0.74602667  1
  H  H120  1  0.16567407  0.47086734  0.66777127  1
  C  C121  1  0.26156229  0.47296804  0.54404534  1
  C  C122  1  0.49583997  0.14339268  0.64643118  1
  H  H123  1  0.49204777  0.39545298  0.65362112  1
  H  H124  1  0.42570484  0.01022463  0.72751095  1
  C  C125  1  0.00842761  0.18593443  0.71858092  1
  C  C126  1  0.20636728  0.48414511  0.69210755  1
  H  H127  1  0.43930916  0.41375193  0.73498619  1
  H  H128  1  0.23663097  0.00736545  0.62268386  1
  C  C129  1  0.48670232  0.45957342  0.52659123  1
  C  C130  1  0.06557122  0.16162740  0.74383426  1
  N  N131  1  0.20649350  0.46045037  0.74557245  1
  H  H132  1  0.03863813  0.08382748  0.96769245  1
  N  N133  1  0.09320890  0.31425962  0.82642453  1
  Zn  Zn134  1  0.30691422  0.29749580  0.81988918  1
  C  C135  1  0.06609293  0.05167990  0.99955299  1
  H  H136  1  0.07839447  0.18354684  0.92685694  1
  N  N137  1  0.02057815  0.25351697  0.87649040  1
  C  C138  1  0.10374043  0.45572569  0.90819135  1
  H  H139  1  0.09285006  0.03423753  0.85773827  1
  N  N140  1  0.13609975  0.47131165  0.86001143  1
  C  C141  1  0.40742099  0.46643476  0.91226164  1
  H  H142  1  0.29231739  0.14053701  0.89805543  1
  C  C143  1  0.26447704  0.14558545  0.86014770  1
  C  C144  1  0.26252833  0.49001655  0.76485237  1
  C  C145  1  0.31442876  0.41571793  0.91493759  1
  H  H146  1  0.26870101  0.40839656  0.93290352  1
  N  N147  1  0.25736041  0.20366216  0.82235155  1
  C  C148  1  0.03129073  0.30789949  0.83430895  1
  H  H149  1  0.42858672  0.39379615  0.83127511  1
  N  N150  1  0.34250380  0.38064364  0.87049566  1
  H  H151  1  0.09095317  0.18795392  0.78002451  1
  Zn  Zn152  1  0.13254468  0.40626065  0.78767105  1
  H  H153  1  0.07539199  0.40099342  0.91447610  1
  H  H154  1  0.17314201  0.26037962  0.86545393  1
  N  N155  1  0.20340950  0.10256810  0.78983152  1
  C  C156  1  0.22226886  0.17841603  0.77829893  1
  C  C157  1  0.07530143  0.22365064  0.88981344  1
  C  C158  1  0.12247901  0.26384612  0.85975793  1
  C  C159  1  0.22371364  0.08293472  0.83983249  1
  C  C160  1  0.39790071  0.41260676  0.86488467  1
  H  H161  1  0.27959905  0.47991013  0.80985651  1
  N  N162  1  0.35613989  0.46485620  0.94080417  1
  H  H163  1  0.21398909  0.02321996  0.85953962  1
  N  N164  1  0.49901651  0.00458776  0.78873334  1
  H  H165  1  0.43825881  0.24248421  0.76237513  1
  N  N166  1  0.21715791  0.92283500  0.16994936  1
  H  H167  1  0.25867938  0.73772539  0.19895635  1
  N  N168  1  0.03323320  0.65586491  0.00627891  1
  N  N169  1  0.37650272  0.59340566  0.24244301  1
  H  H170  1  0.31372875  0.71541336  0.02473795  1
  C  C171  1  0.27591801  0.67658911  0.04067387  1
  C  C172  1  0.38284980  0.67303973  0.23367751  1
  H  H173  1  0.30083602  0.97177209  0.13523168  1
  Zn  Zn174  1  0.12925519  0.60144834  0.13684343  1
  H  H175  1  0.04494433  0.76012249  0.12236700  1
  N  N176  1  0.19500963  0.62357129  0.08023926  1
  N  N177  1  0.29693323  0.84208621  0.16415188  1
  N  N178  1  0.06111774  0.66081925  0.17700222  1
  Zn  Zn179  1  0.38514009  0.79967032  0.14270093  1
  H  H180  1  0.41609289  0.97055278  0.08623362  1
  H  H181  1  0.20713447  0.75228948  0.09326386  1
  C  C182  1  0.27645059  0.91659788  0.15297812  1
  H  H183  1  0.34325104  0.61354488  0.10824946  1
  C  C184  1  0.22723270  0.56242222  0.05368690  1
  N  N185  1  0.37190263  0.68807844  0.17839949  1
  N  N186  1  0.45184208  0.83977518  0.19982818  1
  C  C187  1  0.35523923  0.62229245  0.15267581  1
  C  C188  1  0.46700122  0.58325652  0.06002807  1
  C  C189  1  0.10987178  0.95236715  0.04507755  1
  H  H190  1  0.04585200  0.57363919  0.24427104  1
  H  H191  1  0.12525578  0.88998328  0.05504830  1
  N  N192  1  0.41063220  0.84785957  0.06624691  1
  C  C193  1  0.03347118  0.63012906  0.22323159  1
  C  C194  1  0.42410384  0.80244489  0.02038103  1
  H  H195  1  0.45740638  0.55627120  0.10274548  1
  C  C196  1  0.35745043  0.56005490  0.19484323  1
  C  C197  1  0.42223642  0.92326921  0.05406048  1
  C  C198  1  0.03353038  0.72795516  0.16021542  1
  H  H199  1  0.42312563  0.73633913  0.02551885  1
  N  N200  1  0.43168754  0.58266601  0.01197543  1
  C  C201  1  0.22135325  0.69364905  0.07321048  1
  C  C202  1  0.20040294  0.85352079  0.19166095  1
  H  H203  1  0.15216190  0.84198920  0.20807564  1
  C  C204  1  0.25129401  0.80043790  0.18675010  1
  N  N205  1  0.27796839  0.59793962  0.03307927  1
  Zn  Zn206  1  0.06427112  0.54466097  0.01282010  1
  Zn  Zn207  1  0.34730856  0.53044772  0.00756806  1
  H  H208  1  0.40440408  0.84113983  0.28107278  1
  H  H209  1  0.21542374  0.91417343  0.37837731  1
  C  C210  1  0.17691020  0.94584176  0.39708578  1
  N  N211  1  0.16522449  0.94144009  0.45140949  1
  C  C212  1  0.11170037  0.98201417  0.46148882  1
  H  H213  1  0.02940877  0.53393377  0.35958668  1
  H  H214  1  0.49928352  0.67562541  0.31295796  1
  C  C215  1  0.13567432  0.54786102  0.38687511  1
  H  H216  1  0.40246034  0.81839644  0.43369145  1
  C  C217  1  0.46533486  0.69736353  0.34242327  1
  H  H218  1  0.08416951  0.99324329  0.49968062  1
  Zn  Zn219  1  0.39691287  0.53455850  0.31923730  1
  H  H220  1  0.12822854  0.61404583  0.39507583  1
  C  C221  1  0.24321539  0.65511988  0.45720004  1
  N  N222  1  0.41621584  0.65323885  0.35855698  1
  C  C223  1  0.38616691  0.69223048  0.39733163  1
  C  C224  1  0.41662156  0.76868399  0.40494795  1
  H  H225  1  0.25791800  0.60290466  0.43112082  1
  H  H226  1  0.34557272  0.66515369  0.41817377  1
  H  H227  1  0.30057496  0.77340388  0.43644269  1
  N  N228  1  0.46338304  0.76896635  0.36981874  1
  C  C229  1  0.44624601  0.85128699  0.25639423  1
  N  N230  1  0.22321043  0.77264297  0.48911799  1
  N  N231  1  0.47994802  0.50146165  0.35152139  1
  H  H232  1  0.39938790  0.71772725  0.26399451  1
  N  N233  1  0.19157962  0.64634311  0.48774108  1
  H  H234  1  0.02731830  0.65523276  0.46499383  1
  C  C235  1  0.26201029  0.73742496  0.45706119  1
  H  H236  1  0.13623348  0.51918472  0.29339635  1
  C  C237  1  0.12901238  0.99111553  0.37057396  1
  H  H238  1  0.44521718  0.97880582  0.49875351  1
  C  C239  1  0.33965120  0.95771137  0.49488909  1
  H  H240  1  0.07537797  0.89937946  0.68586560  1
  N  N241  1  0.40508575  0.87099229  0.53228091  1
  H  H242  1  0.33056846  0.78496091  0.55801438  1
  Zn  Zn243  1  0.47817546  0.81524763  0.56545943  1
  Zn  Zn244  1  0.21830760  0.88980631  0.51110177  1
  N  N245  1  0.01346985  0.66771814  0.60317960  1
  H  H246  1  0.42506326  0.63929602  0.52439253  1
  H  H247  1  0.43435720  0.73935416  0.69362684  1
  H  H248  1  0.37472902  0.53601001  0.60553030  1
  N  N249  1  0.29343920  0.52951168  0.72484402  1
  H  H250  1  0.10172231  0.82375880  0.58064560  1
  C  C251  1  0.41597445  0.65320046  0.56994740  1
  H  H252  1  0.08753679  0.57979235  0.62865740  1
  H  H253  1  0.48039096  0.99308710  0.60420604  1
  C  C254  1  0.34687087  0.84254628  0.53781877  1
  N  N255  1  0.39749243  0.63086050  0.66016761  1
  N  N256  1  0.15403229  0.96769510  0.66514487  1
  C  C257  1  0.42094568  0.70492212  0.65405055  1
  N  N258  1  0.43310298  0.71906780  0.59869172  1
  C  C259  1  0.39080712  0.59830128  0.60897450  1
  N  N260  1  0.17722169  0.91323153  0.58250810  1
  Zn  Zn261  1  0.37585625  0.57482728  0.73034713  1
  N  N262  1  0.07012793  0.60571013  0.54008360  1
  C  C263  1  0.05838843  0.61185266  0.59578713  1
  C  C264  1  0.25937587  0.53323160  0.67882242  1
  H  H265  1  0.13900768  0.73464919  0.53472569  1
  C  C266  1  0.11285289  0.91134974  0.65595295  1
  C  C267  1  0.19444026  0.96862961  0.62125427  1
  C  C268  1  0.12743709  0.87494842  0.60281439  1
  C  C269  1  0.02966383  0.64929277  0.51226687  1
  N  N270  1  0.45789260  0.53585439  0.74504174  1
  N  N271  1  0.30627139  0.89376873  0.51249894  1
  Zn  Zn272  1  0.14376040  0.54684048  0.50846774  1
  C  C273  1  0.17754532  0.72059021  0.50657390  1
  H  H274  1  0.28877687  0.51832381  0.52307156  1
  H  H275  1  0.26806896  0.56641220  0.64055927  1
  C  C276  1  0.40246640  0.94253102  0.50844986  1
  C  C277  1  0.06181291  0.71520168  0.97588549  1
  H  H278  1  0.49900464  0.65224235  0.84794177  1
  H  H279  1  0.42813223  0.98579602  0.96680386  1
  H  H280  1  0.43744506  0.63359852  0.92884747  1
  H  H281  1  0.30739725  0.59122496  0.85368377  1
  C  C282  1  0.10859029  0.83931053  0.84489673  1
  H  H283  1  0.37700630  0.89963219  0.80892357  1
  C  C284  1  0.44546005  0.98805955  0.76841036  1
  C  C285  1  0.13905020  0.87038843  0.79466420  1
  C  C286  1  0.45845057  0.62193932  0.97158046  1
  N  N287  1  0.43517719  0.85353957  0.97678313  1
  Zn  Zn288  1  0.45790641  0.82713293  0.90176766  1
  C  C289  1  0.41544788  0.70665496  0.81425438  1
  N  N290  1  0.02831128  0.78402675  0.98010213  1
  N  N291  1  0.46354261  0.91644251  0.84788330  1
  N  N292  1  0.13396916  0.94782089  0.79850565  1
  C  C293  1  0.42830221  0.92892040  0.99324789  1
  N  N294  1  0.38224017  0.64082886  0.80342092  1
  C  C295  1  0.35607934  0.69898611  0.88685979  1
  H  H296  1  0.03074553  0.58448453  0.86759896  1
  H  H297  1  0.44796464  0.73227936  0.78213584  1
  C  C298  1  0.34348755  0.63613430  0.84882942  1
  C  C299  1  0.10410685  0.97157858  0.84577644  1
  H  H300  1  0.09594326  0.77807700  0.86072797  1
  H  H301  1  0.17294788  0.62446362  0.94000489  1
  C  C302  1  0.42106104  0.93093175  0.80901490  1
  N  N303  1  0.40208402  0.74169264  0.86522655  1
  H  H304  1  0.19937142  0.55889073  0.83140106  1
  H  H305  1  0.33232380  0.71037587  0.92839165  1
  C  C306  1  0.03200176  0.65379741  0.78113877  1
  Zn  Zn307  1  0.04235642  0.89064943  0.94104508  1
  N  N308  1  0.09012355  0.90286430  0.87311443  1
  H  H309  1  0.07894400  0.65494776  0.76482199  1
  C  C310  1  0.15534459  0.56732285  0.92098860  1
  H  H311  1  0.10844479  0.71166033  0.95581984  1
  H  H312  1  0.44550888  0.50579831  0.92269323  1
  C  C313  1  0.17033824  0.53602885  0.86559216  1
  C  C314  1  0.00635474  0.61988395  0.83185412  1
  N  N315  1  0.11427235  0.51910622  0.94360653  1
  N  N316  1  0.07871635  0.97352555  0.99758284  1
  H  H317  1  0.15826289  0.84112376  0.75790174  1
  H  H318  1  0.02006553  0.52178702  0.75237869  1
  N  N319  1  0.63681001  0.12752566  0.15074462  1
  N  N320  1  0.76644204  0.31815913  0.21662884  1
  H  H321  1  0.92719399  0.26937769  0.04834589  1
  N  N322  1  0.54032610  0.21837655  0.00626567  1
  C  C323  1  0.64175238  0.17523750  0.19705742  1
  H  H324  1  0.65021166  0.15306314  0.24056554  1
  H  H325  1  0.51762227  0.15008252  0.15704055  1
  H  H326  1  0.72923622  0.16667790  0.01305450  1
  C  C327  1  0.78167340  0.27148993  0.04903654  1
  H  H328  1  0.75647558  0.20505214  0.17371801  1
  N  N329  1  0.90620094  0.43359294  0.07535455  1
  H  H330  1  0.90886474  0.01308712  0.06463758  1
  H  H331  1  0.63687174  0.31454891  0.10397827  1
  C  C332  1  0.99535864  0.10005032  0.24130026  1
  H  H333  1  0.93016176  0.34906794  0.13515682  1
  C  C334  1  0.94569563  0.38615600  0.10161325  1
  C  C335  1  0.73374086  0.22929156  0.02251420  1
  H  H336  1  0.76778033  0.10153964  0.09024461  1
  N  N337  1  0.91740653  0.14292746  0.07512865  1
  C  C338  1  0.50249357  0.25043232  0.04599726  1
  C  C339  1  0.91865010  0.07439277  0.04619565  1
  C  C340  1  0.92792544  0.20444619  0.03940665  1
  N  N341  1  0.97529295  0.10283831  0.18803700  1
  C  C342  1  0.78544297  0.25185746  0.18996608  1
  N  N343  1  0.76465064  0.34811515  0.05899072  1
  Zn  Zn344  1  0.90056654  0.15529994  0.15989633  1
  Zn  Zn345  1  0.67097474  0.34547900  0.23457699  1
  C  C346  1  0.63287066  0.25575473  0.12698992  1
  N  N347  1  0.84861780  0.24567398  0.19246685  1
  H  H348  1  0.66164270  0.46884149  0.12282138  1
  H  H349  1  0.62659503  0.15324752  0.06181226  1
  N  N350  1  0.64263067  0.25372429  0.18207719  1
  H  H351  1  0.82649986  0.24523388  0.06409758  1
  C  C352  1  0.63095695  0.17521087  0.10619815  1
  N  N353  1  0.70309235  0.00640926  0.07470775  1
  N  N354  1  0.99726007  0.47195476  0.04575854  1
  C  C355  1  0.86982682  0.31307587  0.21679279  1
  C  C356  1  0.70697770  0.35453021  0.03598495  1
  H  H357  1  0.91780944  0.32894534  0.21767057  1
  C  C358  1  0.81777346  0.35762046  0.23197892  1
  Zn  Zn359  1  0.81750422  0.44605148  0.08997540  1
  C  C360  1  0.78600335  0.02621348  0.01283063  1
  C  C361  1  0.75277284  0.04980940  0.06315034  1
  N  N362  1  0.63065951  0.45428429  0.21207435  1
  N  N363  1  0.69058444  0.28469545  0.01215741  1
  H  H364  1  0.68145623  0.41337550  0.03436822  1
  H  H365  1  0.50671809  0.30922011  0.06647371  1
  C  C366  1  0.63355344  0.48966344  0.15988802  1
  C  C367  1  0.93622794  0.48690718  0.04124273  1
  Zn  Zn368  1  0.63900730  0.00353602  0.14465007  1
  H  H369  1  0.55037196  0.02143801  0.24798759  1
  N  N370  1  0.64533443  0.01606409  0.22869934  1
  C  C371  1  0.59090010  0.49525805  0.24274089  1
  C  C372  1  0.50631536  0.06447114  0.44782094  1
  H  H373  1  0.99795076  0.42576745  0.44334085  1
  C  C374  1  0.69831116  0.02025909  0.25919678  1
  H  H375  1  0.77223704  0.19824634  0.46777238  1
  C  C376  1  0.81833557  0.28632048  0.35183705  1
  N  N377  1  0.82887380  0.02914114  0.35977097  1
  C  C378  1  0.62286418  0.03770484  0.31902860  1
  N  N379  1  0.77335107  0.17200699  0.38106970  1
  H  H380  1  0.86698328  0.08438665  0.43390958  1
  C  C381  1  0.71970687  0.43785888  0.47344655  1
  N  N382  1  0.55567716  0.49501368  0.41307907  1
  C  C383  1  0.78308747  0.21892875  0.42469298  1
  N  N384  1  0.81097018  0.28872834  0.40747987  1
  C  C385  1  0.56835283  0.28140994  0.30518522  1
  C  C386  1  0.65294151  0.27380125  0.35259960  1
  N  N387  1  0.68347554  0.03588711  0.31264965  1
  C  C388  1  0.60480505  0.23793205  0.38433916  1
  H  H389  1  0.70217928  0.27605881  0.36096516  1
  H  H390  1  0.69333148  0.37768299  0.47067588  1
  N  N391  1  0.62740687  0.30285172  0.30555405  1
  H  H392  1  0.55004089  0.15277643  0.27991281  1
  N  N393  1  0.97716814  0.05035750  0.47760661  1
  C  C394  1  0.96607198  0.45536265  0.41283450  1
  C  C395  1  0.79610448  0.20955559  0.33517526  1
  N  N396  1  0.71041839  0.05082168  0.45440886  1
  H  H397  1  0.58583405  0.37151368  0.39934935  1
  H  H398  1  0.79695726  0.18438947  0.29158669  1
  C  C399  1  0.50464487  0.42818137  0.34816735  1
  N  N400  1  0.78097241  0.45266527  0.46952074  1
  Zn  Zn401  1  0.85023038  0.37408982  0.45638694  1
  N  N402  1  0.55291907  0.24446305  0.35526064  1
  H  H403  1  0.84497388  0.33093456  0.32980661  1
  C  C404  1  0.87510970  0.05427276  0.39332028  1
  H  H405  1  0.60710631  0.21110413  0.42588689  1
  N  N406  1  0.90641565  0.44877334  0.40698490  1
  Zn  Zn407  1  0.74041511  0.05403202  0.37633777  1
  H  H408  1  0.61416842  0.07513656  0.43520048  1
  C  C409  1  0.55586356  0.42469213  0.38634918  1
  H  H410  1  0.83445294  0.49295740  0.35195960  1
  H  H411  1  0.96633402  0.12705351  0.27786127  1
  H  H412  1  0.95821801  0.23656564  0.39294009  1
  H  H413  1  0.53782230  0.29443301  0.26917527  1
  N  N414  1  0.93069765  0.03707436  0.36782112  1
  C  C415  1  0.65109296  0.06149663  0.46579837  1
  H  H416  1  0.51026430  0.10439772  0.48430243  1
  H  H417  1  0.60094417  0.04864182  0.35807324  1
  H  H418  1  0.81706748  0.41649497  0.25199026  1
  C  C419  1  0.88546678  0.49332832  0.36369382  1
  H  H420  1  0.57685312  0.47858328  0.28643123  1
  C  C421  1  0.59728243  0.02903740  0.26224482  1
  C  C422  1  0.50607572  0.16461394  0.25500596  1
  H  H423  1  0.74962982  0.02181614  0.25091193  1
  C  C424  1  0.91040251  0.30722524  0.61581662  1
  H  H425  1  0.70209467  0.03195121  0.58973056  1
  N  N426  1  0.87653417  0.32604117  0.52867038  1
  Zn  Zn427  1  0.91740071  0.12727178  0.63163002  1
  C  C428  1  0.69842708  0.04404852  0.54541486  1
  N  N429  1  0.54738362  0.47373913  0.53980952  1
  C  C430  1  0.72971206  0.11893867  0.65473615  1
  C  C431  1  0.56037980  0.23332299  0.61414798  1
  C  C432  1  0.88035456  0.24596035  0.53947600  1
  C  C433  1  0.78508645  0.16396969  0.64256703  1
  H  H434  1  0.79151691  0.22559331  0.62647046  1
  N  N435  1  0.64317742  0.05817690  0.52359325  1
  N  N436  1  0.99414593  0.12820690  0.68143141  1
  C  C437  1  0.50328321  0.42322301  0.61171296  1
  N  N438  1  0.83153440  0.11489177  0.64719987  1
  N  N439  1  0.74618260  0.04615869  0.66878534  1
  H  H440  1  0.57641286  0.28018843  0.58564600  1
  C  C441  1  0.97283957  0.10755470  0.51761221  1
  N  N442  1  0.93750558  0.07653837  0.55830290  1
  N  N443  1  0.90020495  0.23520282  0.59367754  1
  C  C444  1  0.58200436  0.20337623  0.66623149  1
  N  N445  1  0.54096234  0.14844665  0.68445706  1
  C  C446  1  0.89653755  0.36590509  0.57305698  1
  H  H447  1  0.99059093  0.16729730  0.51767211  1
  H  H448  1  0.68282442  0.14130997  0.64912683  1
  C  C449  1  0.99896835  0.46306986  0.66841606  1
  H  H450  1  0.62386675  0.22018995  0.69074655  1
  C  C451  1  0.80912057  0.04281796  0.66839894  1
  H  H452  1  0.58204040  0.05352140  0.66009970  1
  C  C453  1  0.91986752  0.00210051  0.54505322  1
  N  N454  1  0.51024531  0.18957995  0.60085253  1
  H  H455  1  0.90793344  0.43241968  0.57450955  1
  H  H456  1  0.79194162  0.03712227  0.50624657  1
  H  H457  1  0.87178983  0.19568487  0.50854438  1
  H  H458  1  0.71641484  0.49879149  0.74340809  1
  H  H459  1  0.93265331  0.31437642  0.65678274  1
  H  H460  1  0.98073736  0.23462546  0.73301913  1
  H  H461  1  0.60160808  0.47080113  0.61609992  1
  H  H462  1  0.95905124  0.49405094  0.64870666  1
  C  C463  1  0.55860918  0.45930705  0.59269542  1
  C  C464  1  0.74220174  0.04223106  0.50249213  1
  H  H465  1  0.98052313  0.42046899  0.89033386  1
  C  C466  1  0.89795705  0.16222699  0.81024956  1
  N  N467  1  0.88315376  0.19434777  0.86015068  1
  N  N468  1  0.59940720  0.38358541  0.94490891  1
  C  C469  1  0.79775270  0.15731998  0.81396394  1
  H  H470  1  0.74460130  0.46709551  0.97808679  1
  H  H471  1  0.99389598  0.33891750  0.81290711  1
  N  N472  1  0.59529533  0.13973261  0.82400941  1
  H  H473  1  0.71037141  0.15161857  0.91828867  1
  C  C474  1  0.57386247  0.19132187  0.86276055  1
  C  C475  1  0.66692820  0.15787406  0.89199193  1
  H  H476  1  0.94313913  0.15430486  0.78902490  1
  H  H477  1  0.93410323  0.05830879  0.95016927  1
  H  H478  1  0.75183839  0.13590079  0.80402828  1
  C  C479  1  0.84090329  0.45215133  0.93471781  1
  C  C480  1  0.63046272  0.41699643  0.90085451  1
  C  C481  1  0.64967945  0.11463278  0.84136346  1
  N  N482  1  0.89072767  0.48125101  0.90972386  1
  N  N483  1  0.90768748  0.34990356  0.92169188  1
  Zn  Zn484  1  0.61101061  0.27086291  0.96856740  1
  H  H485  1  0.66491686  0.38179931  0.87373676  1
  Zn  Zn486  1  0.93723189  0.23892981  0.91250092  1
  C  C487  1  0.93318928  0.42068680  0.90661383  1
  H  H488  1  0.79615242  0.22456399  0.89888860  1
  N  N489  1  0.84631394  0.14054029  0.78060771  1
  N  N490  1  0.61708254  0.19991047  0.90397644  1
  H  H491  1  0.54624986  0.09864853  0.96975144  1
  C  C492  1  0.53487969  0.45657924  0.77249641  1
  C  C493  1  0.82018030  0.19283999  0.86322213  1
  N  N494  1  0.93636080  0.17612008  0.98720685  1
  C  C495  1  0.85283726  0.36693062  0.94276748  1
  N  N496  1  0.60728565  0.49070025  0.89042406  1
  H  H497  1  0.56394959  0.41126319  0.79303781  1
  H  H498  1  0.67772838  0.06737365  0.81980425  1
  H  H499  1  0.53021464  0.22125335  0.85902547  1
  H  H500  1  0.82185608  0.31998981  0.95613150  1
  C  C501  1  0.55755588  0.43488917  0.96418751  1
  C  C502  1  0.52182899  0.14272696  0.99724140  1
  H  H503  1  0.82672788  0.05281826  0.99471540  1
  Zn  Zn504  1  0.54434599  0.09535338  0.75783029  1
  C  C505  1  0.93347649  0.09593007  0.98972130  1
  H  H506  1  0.93456549  0.01136168  0.75996588  1
  C  C507  1  0.88273583  0.00025700  0.86798564  1
  H  H508  1  0.98487368  0.02457011  0.85313971  1
  H  H509  1  0.79708222  0.48475116  0.94128365  1
  H  H510  1  0.85669928  0.03765586  0.83821576  1
  H  H511  1  0.52347262  0.42254939  0.99821249  1
  N  N512  1  0.59737744  0.77287622  0.09225250  1
  H  H513  1  0.54321193  0.61318550  0.22306345  1
  H  H514  1  0.73122149  0.50682041  0.18813174  1
  C  C515  1  0.77737108  0.52250903  0.20169281  1
  H  H516  1  0.75423634  0.78868945  0.01110528  1
  C  C517  1  0.87510597  0.53965468  0.19004484  1
  C  C518  1  0.97901206  0.76736235  0.01254919  1
  H  H519  1  0.53061091  0.77920109  0.02703373  1
  C  C520  1  0.73382423  0.52139125  0.00289599  1
  C  C521  1  0.62633181  0.82480858  0.12587765  1
  N  N522  1  0.76188613  0.52951475  0.05318419  1
  C  C523  1  0.57412668  0.89570238  0.06600010  1
  C  C524  1  0.72990471  0.59087965  0.07969014  1
  H  H525  1  0.92034444  0.53499788  0.17322925  1
  C  C526  1  0.98417106  0.68547004  0.03141001  1
  C  C527  1  0.57570557  0.56503449  0.21145767  1
  H  H528  1  0.65886744  0.80582185  0.16104070  1
  C  C529  1  0.70144893  0.95908658  0.02688058  1
  H  H530  1  0.54808886  0.94669068  0.04716845  1
  N  N531  1  0.61248999  0.90071089  0.10918283  1
  C  C532  1  0.56068878  0.81065379  0.05772898  1
  H  H533  1  0.66490674  0.91365614  0.01776667  1
  N  N534  1  0.67861030  0.61184250  0.05227970  1
  Zn  Zn535  1  0.59618944  0.63953250  0.09431339  1
  C  C536  1  0.54306220  0.86550408  0.23664687  1
  N  N537  1  0.98317675  0.67623827  0.23338970  1
  N  N538  1  0.60244873  0.55853876  0.16082280  1
  H  H539  1  0.72768987  0.59822662  0.12627919  1
  H  H540  1  0.91452544  0.53752676  0.01564156  1
  N  N541  1  0.82125175  0.50939089  0.16552568  1
  N  N542  1  0.51968864  0.62145836  0.04787374  1
  C  C543  1  0.68444651  0.57526288  0.00138655  1
  N  N544  1  0.86217103  0.57367447  0.23829386  1
  H  H545  1  0.94219046  0.78035556  0.19783831  1
  C  C546  1  0.98147195  0.73643981  0.19637722  1
  C  C547  1  0.51064579  0.84369013  0.18654262  1
  H  H548  1  0.52352628  0.83417966  0.14053672  1
  H  H549  1  0.94143041  0.81155813  0.02100456  1
  H  H550  1  0.95594577  0.63960778  0.05687021  1
  H  H551  1  0.59334517  0.87419747  0.24161155  1
  C  C552  1  0.80198130  0.56934052  0.24700122  1
  N  N553  1  0.93134646  0.54156960  0.34666376  1
  N  N554  1  0.50983209  0.95717993  0.39657991  1
  C  C555  1  0.51421172  0.54440314  0.38855457  1
  C  C556  1  0.88730458  0.84668615  0.37970245  1
  C  C557  1  0.69883852  0.75914629  0.36405479  1
  N  N558  1  0.85170655  0.79554335  0.40821617  1
  N  N559  1  0.70704378  0.81493994  0.40366912  1
  H  H560  1  0.94812084  0.81816418  0.30528774  1
  H  H561  1  0.94179024  0.93589158  0.45960283  1
  H  H562  1  0.84450475  0.66168875  0.40260871  1
  Zn  Zn563  1  0.92241913  0.63358897  0.29161896  1
  N  N564  1  0.90134785  0.72193864  0.34642149  1
  C  C565  1  0.91944499  0.99287985  0.32245900  1
  C  C566  1  0.63892548  0.76801952  0.34010950  1
  C  C567  1  0.86551954  0.71813357  0.39035723  1
  N  N568  1  0.61216945  0.82695540  0.36904897  1
  Zn  Zn569  1  0.52610206  0.85668876  0.36046902  1
  C  C570  1  0.91818230  0.80079213  0.33872621  1
  H  H571  1  0.64427031  0.91002905  0.43446223  1
  C  C572  1  0.52525490  0.98275619  0.44793873  1
  C  C573  1  0.65305483  0.85661538  0.40710385  1
  H  H574  1  0.77898495  0.59973559  0.28339911  1
  Zn  Zn575  1  0.77859262  0.82743876  0.45371679  1
  H  H576  1  0.61294435  0.72895557  0.30961140  1
  H  H577  1  0.73771071  0.71968569  0.35078743  1
  H  H578  1  0.88023957  0.91383610  0.38823200  1
  H  H579  1  0.54973383  0.94569063  0.47776592  1
  N  N580  1  0.50233321  0.85922696  0.27825867  1
  Zn  Zn581  1  0.60118345  0.52507104  0.48493911  1
  H  H582  1  0.82817640  0.95567789  0.28380156  1
  C  C583  1  0.85406762  0.98849302  0.31785159  1
  N  N584  1  0.69332592  0.50978620  0.48002420  1
  H  H585  1  0.95623657  0.96995448  0.29421713  1
  C  C586  1  0.98286948  0.51436857  0.37243621  1
  H  H587  1  0.50127408  0.60622386  0.39966828  1
  C  C588  1  0.94464281  0.98550702  0.49086130  1
  C  C589  1  0.60498147  0.70085789  0.46425086  1
  H  H590  1  0.64142973  0.69359025  0.43278726  1
  C  C591  1  0.79383438  0.52939683  0.47299633  1
  H  H592  1  0.83911793  0.55461711  0.47481146  1
  H  H593  1  0.57860240  0.83664294  0.47398008  1
  C  C594  1  0.57465577  0.77112527  0.48487602  1
  H  H595  1  0.72357496  0.63035688  0.48270652  1
  C  C596  1  0.73377507  0.56792871  0.47803031  1
  N  N597  1  0.57964866  0.63993978  0.49130173  1
  C  C598  1  0.94155383  0.96129758  0.73042533  1
  Zn  Zn599  1  0.69796598  0.94324435  0.68343912  1
  N  N600  1  0.53378993  0.74719051  0.52303211  1
  N  N601  1  0.77408485  0.84186883  0.53671446  1
  H  H602  1  0.82199577  0.84561833  0.66291368  1
  N  N603  1  0.74407179  0.88150224  0.61980053  1
  H  H604  1  0.83666986  0.98926798  0.67511168  1
  H  H605  1  0.88807290  0.96535983  0.57222369  1
  C  C606  1  0.58622615  0.86342502  0.63240746  1
  N  N607  1  0.61372473  0.93078260  0.65291501  1
  N  N608  1  0.93223041  0.97347412  0.67628038  1
  N  N609  1  0.53047561  0.88292361  0.61071799  1
  H  H610  1  0.60732122  0.80509964  0.63118505  1
  H  H611  1  0.95939823  0.74328744  0.54674235  1
  H  H612  1  0.85426855  0.78014128  0.55716113  1
  C  C613  1  0.81612550  0.81623185  0.57059469  1
  C  C614  1  0.53770481  0.66513844  0.52888824  1
  Zn  Zn615  1  0.98902200  0.73231109  0.67510009  1
  C  C616  1  0.94823146  0.90113889  0.64948545  1
  C  C617  1  0.72906597  0.88140064  0.56443073  1
  C  C618  1  0.79481276  0.84081469  0.62596870  1
  H  H619  1  0.68344443  0.90687537  0.54866189  1
  N  N620  1  0.96218033  0.84770709  0.68879292  1
  H  H621  1  0.94423668  0.88144626  0.60617327  1
  C  C622  1  0.52061190  0.96148842  0.61665334  1
  C  C623  1  0.57510842  0.99171486  0.64529977  1
  H  H624  1  0.51082224  0.62447057  0.55722469  1
  C  C625  1  0.99301651  0.69066854  0.55347110  1
  C  C626  1  0.95986135  0.88042744  0.73998720  1
  H  H627  1  0.75012456  0.63203877  0.89521611  1
  H  H628  1  0.89386428  0.85984541  0.96223909  1
  N  N629  1  0.84554082  0.68756630  0.92218085  1
  N  N630  1  0.53369404  0.76362836  0.89413920  1
  C  C631  1  0.80559853  0.54065069  0.78738754  1
  C  C632  1  0.93267761  0.66762149  0.78033767  1
  H  H633  1  0.88595291  0.68884148  0.77170618  1
  C  C634  1  0.94706173  0.99423679  0.87598340  1
  N  N635  1  0.72346656  0.93178836  0.85299278  1
  C  C636  1  0.90437513  0.90803960  0.93203475  1
  C  C637  1  0.51218984  0.96344634  0.83703440  1
  Zn  Zn638  1  0.88572926  0.59631273  0.88530864  1
  H  H639  1  0.63069663  0.91829441  0.88744931  1
  N  N640  1  0.81302165  0.57922201  0.83589542  1
  H  H641  1  0.68007292  0.72462848  0.89921503  1
  C  C642  1  0.74472362  0.94278923  0.79900484  1
  C  C643  1  0.75688422  0.60092148  0.85590087  1
  Zn  Zn644  1  0.62219587  0.57006290  0.83071496  1
  C  C645  1  0.83306392  0.76186269  0.89880786  1
  N  N646  1  0.79768812  0.80412250  0.93503212  1
  N  N647  1  0.71467722  0.57350908  0.81848442  1
  C  C648  1  0.81628575  0.68770371  0.97229737  1
  N  N649  1  0.59813139  0.66946086  0.86729161  1
  H  H650  1  0.55588464  0.67898003  0.97603557  1
  C  C651  1  0.53912441  0.68933487  0.86609171  1
  H  H652  1  0.84336503  0.78739101  0.85829022  1
  H  H653  1  0.55818151  0.96308536  0.85541535  1
  N  N654  1  0.55329282  0.53270083  0.77917329  1
  N  N655  1  0.85970149  0.94579577  0.90346103  1
  Zn  Zn656  1  0.76971157  0.91886208  0.92004322  1
  N  N657  1  0.69506278  0.93951335  0.76339879  1
  C  C658  1  0.58681801  0.78537734  0.91271851  1
  H  H659  1  0.79604083  0.95087821  0.78971832  1
  C  C660  1  0.63137839  0.72521146  0.89333730  1
  N  N661  1  0.94670630  0.63155761  0.83050690  1
  H  H662  1  0.59717637  0.92532074  0.77226889  1
  C  C663  1  0.74155950  0.53316226  0.77728594  1
  C  C664  1  0.78582332  0.76258996  0.98020063  1
  H  H665  1  0.59773536  0.84302913  0.93606736  1
  H  H666  1  0.65056873  0.57630736  0.96830286  1
  N  N667  1  0.96006055  0.93681443  0.91439461  1
  C  C668  1  0.66178484  0.92568396  0.85028894  1
  C  C669  1  0.64381391  0.93265446  0.79194665  1
  H  H670  1  0.96908804  0.84738977  0.77618552  1
  N  N671  1  0.74962237  0.97067546  0.99086996  1
  H  H672  1  0.84548682  0.51565506  0.76338155  1
  H  H673  1  0.53538167  0.56261840  0.92395964  1
  C  C674  1  0.51723777  0.64495425  0.99449020  1
  N  N675  1  0.98591458  0.68230085  0.75210590  1
  C  C676  1  0.50743557  0.58136438  0.75970014  1
  H  H677  1  0.50777858  0.64781804  0.76427569  1
  C  C678  1  0.56399970  0.50609678  0.92906248  1
  H  H679  1  0.81400905  0.63298667  0.99996910  1
