# generated using pymatgen
data_Zn3H20C29N3O8
_symmetry_space_group_name_H-M   'P 1'
_cell_length_a   19.50985513
_cell_length_b   17.84915246
_cell_length_c   16.35605880
_cell_angle_alpha   90.00000000
_cell_angle_beta   90.00000000
_cell_angle_gamma   90.00000000
_symmetry_Int_Tables_number   1
_chemical_formula_structural   Zn3H20C29N3O8
_chemical_formula_sum   'Zn24 H160 C232 N24 O64'
_cell_volume   5695.74197320
_cell_formula_units_Z   8
loop_
 _symmetry_equiv_pos_site_id
 _symmetry_equiv_pos_as_xyz
  1  'x, y, z'
loop_
 _atom_site_type_symbol
 _atom_site_label
 _atom_site_symmetry_multiplicity
 _atom_site_fract_x
 _atom_site_fract_y
 _atom_site_fract_z
 _atom_site_occupancy
  H  H0  1  0.21988203  0.14563662  0.12003007  1
  H  H1  1  0.03367146  0.37987360  0.21061294  1
  C  C2  1  0.21074709  0.19854076  0.15528881  1
  O  O3  1  0.21131213  0.44366217  0.30653652  1
  C  C4  1  0.09337075  0.26078405  0.46938501  1
  C  C5  1  0.11147089  0.20835270  0.06298264  1
  H  H6  1  0.16075827  0.32638456  0.39321647  1
  O  O7  1  0.15221126  0.06291975  0.49712176  1
  O  O8  1  0.04351231  0.25899071  0.05236990  1
  C  C9  1  0.17713969  0.33627114  0.23238186  1
  H  H10  1  0.22143832  0.44557177  0.46086487  1
  C  C11  1  0.13971356  0.31104775  0.16536623  1
  C  C12  1  0.03882639  0.37887332  0.27968935  1
  C  C13  1  0.15390806  0.23945826  0.12752426  1
  O  O14  1  0.02033458  0.16460345  0.39145466  1
  H  H15  1  0.05826762  0.04533416  0.22971461  1
  O  O16  1  0.12148654  0.15418012  0.02530516  1
  H  H17  1  0.10142622  0.34582747  0.13313686  1
  C  C18  1  0.23562766  0.29745199  0.25485528  1
  H  H19  1  0.01557310  0.41766479  0.44044454  1
  C  C20  1  0.19094257  0.01947881  0.25651576  1
  O  O21  1  0.09424919  0.42861995  0.30223004  1
  C  C22  1  0.15448192  0.02114282  0.18121233  1
  C  C23  1  0.07223441  0.20135690  0.39458961  1
  H  H24  1  0.17330066  0.04006000  0.31564459  1
  H  H25  1  0.06497450  0.32300279  0.29125187  1
  O  O26  1  0.11470696  0.20562940  0.33552502  1
  N  N27  1  0.08706434  0.04841229  0.17883749  1
  C  C28  1  0.16278081  0.40971544  0.28111105  1
  C  C29  1  0.13613944  0.32110357  0.45115978  1
  H  H30  1  0.06595967  0.01231280  0.39878205  1
  C  C31  1  0.02792066  0.00944382  0.44923033  1
  H  H32  1  0.05575491  0.02653155  0.13333158  1
  C  C33  1  0.24244523  0.33982604  0.01904934  1
  H  H34  1  0.22948605  0.34478766  0.08477501  1
  C  C35  1  0.00007965  0.23027354  0.00740079  1
  C  C36  1  0.12957198  0.35876954  0.59706712  1
  O  O37  1  0.11889409  0.08042129  0.62560856  1
  H  H38  1  0.02368740  0.20536968  0.55518481  1
  C  C39  1  0.19273102  0.10759718  0.80075689  1
  H  H40  1  0.17935553  0.23943871  0.77453112  1
  C  C41  1  0.15453835  0.27930360  0.82055470  1
  C  C42  1  0.06666444  0.47310256  0.89041641  1
  C  C43  1  0.06329539  0.24992644  0.54614546  1
  C  C44  1  0.22763503  0.11303989  0.87519405  1
  H  H45  1  0.16398925  0.17357641  0.63264632  1
  C  C46  1  0.14642006  0.37647368  0.51496596  1
  C  C47  1  0.21283881  0.30618490  0.87844575  1
  H  H48  1  0.19539727  0.10133653  0.92978261  1
  O  O49  1  0.11240099  0.32260485  0.76612845  1
  H  H50  1  0.10829785  0.43717813  0.86123569  1
  C  C51  1  0.10771408  0.05512109  0.55061229  1
  C  C52  1  0.08802579  0.29559979  0.61190259  1
  C  C53  1  0.19333301  0.31869888  0.95906801  1
  C  C54  1  0.19196865  0.11906373  0.64417338  1
  C  C55  1  0.22901924  0.12194990  0.72484083  1
  H  H56  1  0.14364247  0.39905167  0.64888509  1
  H  H57  1  0.13850068  0.09628211  0.79677059  1
  N  N58  1  0.18576952  0.44313776  0.50643569  1
  O  O59  1  0.03674455  0.22905392  0.71665181  1
  H  H60  1  0.23015462  0.20478538  0.53730008  1
  H  H61  1  0.11305298  0.25221456  0.85746261  1
  N  N62  1  0.23403274  0.48366114  0.73762879  1
  C  C63  1  0.07292265  0.27932857  0.69838077  1
  C  C64  1  0.03940062  0.02909680  0.53050701  1
  H  H65  1  0.22776037  0.10378987  0.59169583  1
  H  H66  1  0.00578770  0.17478779  0.98103333  1
  H  H67  1  0.13767737  0.31609272  0.97562374  1
  C  C68  1  0.02409285  0.44465066  0.95074996  1
  Zn  Zn69  1  0.23147497  0.49686216  0.61096891  1
  H  H70  1  0.03629431  0.38766243  0.97457818  1
  C  C71  1  0.22536475  0.66815795  0.31347910  1
  O  O72  1  0.12991875  0.92263196  0.38660732  1
  O  O73  1  0.06987542  0.57867635  0.13614892  1
  C  C74  1  0.15864798  0.66025144  0.34201704  1
  H  H75  1  0.15418674  0.77907996  0.21168184  1
  C  C76  1  0.07601471  0.85868743  0.17969240  1
  C  C77  1  0.18165651  0.64404262  0.03584309  1
  H  H78  1  0.16158890  0.54570274  0.32759291  1
  N  N79  1  0.13390978  0.58746281  0.35661496  1
  O  O80  1  0.05391621  0.83944450  0.42451088  1
  C  C81  1  0.15006329  0.79202554  0.35638379  1
  C  C82  1  0.21564047  0.80694904  0.32535753  1
  C  C83  1  0.10694536  0.85602129  0.39044497  1
  Zn  Zn84  1  0.02113683  0.56808290  0.30327590  1
  H  H85  1  0.07060503  0.89030837  0.23581782  1
  C  C86  1  0.11945049  0.79887930  0.16591031  1
  C  C87  1  0.18661118  0.71545586  0.07018598  1
  H  H88  1  0.06702993  0.71751471  0.39500488  1
  C  C89  1  0.11946408  0.72171100  0.36738512  1
  C  C90  1  0.12660405  0.76934171  0.08691268  1
  Zn  Zn91  1  0.14883719  0.54054592  0.46937555  1
  N  N92  1  0.03008196  0.87645682  0.12485980  1
  C  C93  1  0.02619121  0.60149668  0.17976041  1
  C  C94  1  0.24891437  0.97177512  0.10971218  1
  Zn  Zn95  1  0.21173540  0.96711700  0.45387343  1
  C  C96  1  0.24209629  0.60314956  0.02135804  1
  C  C97  1  0.07841890  0.79146072  0.02853805  1
  H  H98  1  0.13032803  0.62166832  0.01681697  1
  C  C99  1  0.03294570  0.85151456  0.04893422  1
  C  C100  1  0.18089928  0.98787846  0.10806599  1
  H  H101  1  0.14627252  0.97333714  0.05815146  1
  C  C102  1  0.24973360  0.74126090  0.30586915  1
  H  H103  1  0.23816412  0.86487720  0.32065649  1
  C  C104  1  0.00173092  0.59821107  0.48520514  1
  O  O105  1  0.18309305  0.67616020  0.71359571  1
  H  H106  1  0.17037022  0.61723267  0.56939690  1
  H  H107  1  0.11241504  0.55463508  0.74852668  1
  Zn  Zn108  1  0.22638315  0.92430391  0.84350006  1
  O  O109  1  0.08524599  0.94842713  0.81342175  1
  C  C110  1  0.00263862  0.59456594  0.90447258  1
  C  C111  1  0.13165978  0.94891226  0.76758104  1
  C  C112  1  0.04534846  0.80431802  0.70259560  1
  H  H113  1  0.07601717  0.76925881  0.96729776  1
  C  C114  1  0.05340310  0.54954275  0.86403347  1
  C  C115  1  0.10292096  0.58847185  0.80495248  1
  C  C116  1  0.11607661  0.78230262  0.70036877  1
  C  C117  1  0.17941645  0.82565456  0.68354601  1
  C  C118  1  0.12747677  0.70062126  0.72718793  1
  H  H119  1  0.15028161  0.59897451  0.83850488  1
  Zn  Zn120  1  0.09491216  0.89206903  0.64989330  1
  O  O121  1  0.08235833  0.67056579  0.77676051  1
  C  C122  1  0.18806411  0.90608022  0.71998526  1
  O  O123  1  0.23093569  0.92109224  0.97712069  1
  N  N124  1  0.21324541  0.59775174  0.53805149  1
  H  H125  1  0.21064398  0.74849426  0.51619510  1
  H  H126  1  0.22495311  0.79381173  0.67560071  1
  O  O127  1  0.06398492  0.59567780  0.50946489  1
  C  C128  1  0.47684990  0.13667251  0.20104329  1
  N  N129  1  0.34739894  0.49796131  0.10978738  1
  C  C130  1  0.47393445  0.21552470  0.19001929  1
  O  O131  1  0.37038975  0.00904922  0.31141311  1
  O  O132  1  0.46124039  0.36532040  0.19031422  1
  H  H133  1  0.39219611  0.32781026  0.08202730  1
  C  C134  1  0.36583423  0.37626723  0.05732719  1
  C  C135  1  0.32999805  0.25782785  0.37781986  1
  C  C136  1  0.36439341  0.23522583  0.29581244  1
  H  H137  1  0.38676879  0.36005455  0.36448372  1
  H  H138  1  0.38498713  0.28274757  0.26163000  1
  O  O139  1  0.43862903  0.02763265  0.13161735  1
  H  H140  1  0.40589643  0.41109830  0.02228847  1
  N  N141  1  0.32213428  0.20222025  0.22990601  1
  H  H142  1  0.43923192  0.24325886  0.14708343  1
  H  H143  1  0.47118568  0.47975104  0.30133600  1
  C  C144  1  0.35700422  0.32640062  0.40740380  1
  C  C145  1  0.34072271  0.43037726  0.12569717  1
  C  C146  1  0.30815758  0.01844346  0.32222852  1
  O  O147  1  0.39903723  0.13518251  0.08676293  1
  C  C148  1  0.43532739  0.09714786  0.13562920  1
  C  C149  1  0.28332702  0.21422699  0.42072774  1
  H  H150  1  0.40405671  0.19281761  0.30443775  1
  O  O151  1  0.28235632  0.03597959  0.38932771  1
  H  H152  1  0.32571606  0.14694701  0.21823868  1
  H  H153  1  0.31415290  0.42107652  0.18427157  1
  C  C154  1  0.34863597  0.34674808  0.49077549  1
  H  H155  1  0.26895043  0.32308874  0.29701360  1
  C  C156  1  0.26020841  0.00617292  0.24964470  1
  H  H157  1  0.48706558  0.04553514  0.49473826  1
  C  C158  1  0.26843779  0.23453516  0.49958590  1
  H  H159  1  0.46414573  0.49713869  0.11770244  1
  C  C160  1  0.49791894  0.33947287  0.24043517  1
  C  C161  1  0.49167187  0.47593960  0.06283563  1
  H  H162  1  0.49458489  0.44226115  0.44134545  1
  C  C163  1  0.25495601  0.22977224  0.21373185  1
  H  H164  1  0.25753445  0.16705324  0.38810688  1
  H  H165  1  0.30214234  0.12610854  0.01072733  1
  C  C166  1  0.49150245  0.13621907  0.63480751  1
  H  H167  1  0.39796373  0.24892330  0.63307759  1
  C  C168  1  0.29942628  0.13154285  0.87609848  1
  C  C169  1  0.38061861  0.42836019  0.70594458  1
  Zn  Zn170  1  0.43834159  0.16532838  0.95776419  1
  C  C171  1  0.49079591  0.47882550  0.92238874  1
  H  H172  1  0.32555523  0.21359970  0.96894478  1
  H  H173  1  0.32289326  0.43399177  0.71173127  1
  O  O174  1  0.47511795  0.08984446  0.85983999  1
  H  H175  1  0.38565948  0.34862895  0.89444137  1
  N  N176  1  0.37151610  0.29552235  0.66040513  1
  C  C177  1  0.33213033  0.33902031  0.91072118  1
  C  C178  1  0.32775081  0.15259008  0.95961333  1
  C  C179  1  0.40941055  0.35991671  0.68283372  1
  C  C180  1  0.29982902  0.13921710  0.72807292  1
  H  H181  1  0.33307938  0.14914469  0.67588293  1
  O  O182  1  0.44287085  0.16027362  0.59583564  1
  C  C183  1  0.33616214  0.14529868  0.80237611  1
  H  H184  1  0.39083942  0.16232583  0.80251966  1
  C  C185  1  0.30460523  0.29610165  0.53324787  1
  C  C186  1  0.42141488  0.48878365  0.73046031  1
  H  H187  1  0.29575708  0.37308166  0.64411015  1
  H  H188  1  0.36863236  0.39935267  0.51553716  1
  C  C189  1  0.30308965  0.31300816  0.62455341  1
  H  H190  1  0.30035890  0.30364049  0.79064465  1
  C  C191  1  0.28352683  0.31559435  0.85420259  1
  C  C192  1  0.48170491  0.35046851  0.68739291  1
  H  H193  1  0.26854830  0.27387323  0.66061930  1
  C  C194  1  0.49194828  0.47819813  0.72762748  1
  H  H195  1  0.25262274  0.47837555  0.83717277  1
  C  C196  1  0.46310882  0.02083330  0.85015567  1
  C  C197  1  0.31116652  0.35639863  0.99173728  1
  O  O198  1  0.49032108  0.64568482  0.39710622  1
  N  N199  1  0.30332010  0.63543489  0.03071675  1
  H  H200  1  0.25846438  0.62204714  0.30220895  1
  H  H201  1  0.36240770  0.71707551  0.07060086  1
  Zn  Zn202  1  0.38393421  0.57170294  0.00000231  1
  C  C203  1  0.38225277  0.64678141  0.45959955  1
  O  O204  1  0.36678821  0.87935171  0.45685736  1
  C  C205  1  0.31862810  0.76406264  0.47664888  1
  Zn  Zn206  1  0.40975246  0.89825488  0.33090608  1
  O  O207  1  0.33343038  0.91086415  0.03312603  1
  C  C208  1  0.31424048  0.84706612  0.48233079  1
  O  O209  1  0.34563789  0.81312707  0.26352350  1
  C  C210  1  0.32537515  0.74782691  0.27801210  1
  O  O211  1  0.35936075  0.69354891  0.26214516  1
  C  C212  1  0.44705870  0.60690809  0.43724428  1
  O  O213  1  0.45236933  0.53996972  0.45635778  1
  C  C214  1  0.29082204  0.98301657  0.17776660  1
  H  H215  1  0.42351737  0.75199862  0.43023782  1
  H  H216  1  0.25972524  0.80348097  0.11568397  1
  C  C217  1  0.37810241  0.72361686  0.45207735  1
  H  H218  1  0.34376941  0.97397829  0.17219447  1
  C  C219  1  0.27426637  0.93431965  0.03033340  1
  Zn  Zn220  1  0.46933588  0.69113419  0.27182026  1
  H  H221  1  0.32028570  0.53505744  0.14504071  1
  C  C222  1  0.30777879  0.70566971  0.05931123  1
  C  C223  1  0.25227208  0.74937167  0.08591655  1
  O  O224  1  0.47763241  0.87877649  0.21988659  1
  O  O225  1  0.49557928  0.94782045  0.39320799  1
  Zn  Zn226  1  0.43438798  0.95593723  0.00447272  1
  C  C227  1  0.32687882  0.60384387  0.48514288  1
  H  H228  1  0.33184055  0.54383330  0.49666366  1
  H  H229  1  0.25086541  0.54351549  0.00367402  1
  C  C230  1  0.43198467  0.84015731  0.66510085  1
  C  C231  1  0.42610661  0.79207847  0.88751598  1
  C  C232  1  0.49155846  0.81714491  0.90084868  1
  C  C233  1  0.31099412  0.80915317  0.74317961  1
  H  H234  1  0.34776143  0.69934700  0.91090171  1
  H  H235  1  0.36324274  0.69701723  0.75921389  1
  N  N236  1  0.43667942  0.67311024  0.95564366  1
  H  H237  1  0.26679342  0.98961933  0.68838057  1
  N  N238  1  0.42251725  0.77209456  0.69712567  1
  C  C239  1  0.36435098  0.75467640  0.73533666  1
  C  C240  1  0.39720840  0.56083635  0.76258253  1
  C  C241  1  0.40183385  0.72078343  0.91342615  1
  C  C242  1  0.38370000  0.89869231  0.67622255  1
  N  N243  1  0.46531141  0.50230575  0.99335250  1
  H  H244  1  0.47981961  0.84616572  0.63143658  1
  C  C245  1  0.25957441  0.93677990  0.72357391  1
  O  O246  1  0.44294344  0.60839584  0.77265322  1
  C  C247  1  0.31994165  0.88060488  0.71075184  1
  H  H248  1  0.39751587  0.95395542  0.65699608  1
  O  O249  1  0.33309610  0.57500718  0.78120936  1
  H  H250  1  0.39418877  0.83059662  0.85257936  1
  C  C251  1  0.26139174  0.72322843  0.50099080  1
  C  C252  1  0.27285303  0.51148098  0.78302223  1
  C  C253  1  0.26755583  0.64207186  0.50761170  1
  H  H254  1  0.26072353  0.79282104  0.77232204  1
  Zn  Zn255  1  0.49061432  0.68437193  0.70757628  1
  O  O256  1  0.26686649  0.88038725  0.51605530  1
  O  O257  1  0.43392723  0.99648178  0.79071727  1
  H  H258  1  0.46604195  0.50478825  0.86677438  1
  C  C259  1  0.68177848  0.26697283  0.42158533  1
  H  H260  1  0.65311825  0.33016690  0.06008055  1
  C  C261  1  0.68445366  0.05134886  0.41930218  1
  H  H262  1  0.61071060  0.16470945  0.42087912  1
  C  C263  1  0.54630168  0.15799437  0.32342344  1
  C  C264  1  0.67728699  0.35744047  0.30984638  1
  C  C265  1  0.50635995  0.25886821  0.24817872  1
  C  C266  1  0.53340262  0.48950830  0.43715239  1
  C  C267  1  0.71828184  0.21862833  0.47331816  1
  N  N268  1  0.73508673  0.33598518  0.18013241  1
  H  H269  1  0.65176355  0.39687778  0.35318272  1
  H  H270  1  0.51495931  0.04723382  0.27629044  1
  C  C271  1  0.62668783  0.05920347  0.35851266  1
  Zn  Zn272  1  0.58845085  0.08271820  0.08205612  1
  H  H273  1  0.54894330  0.47364450  0.23365239  1
  H  H274  1  0.57335076  0.27594025  0.35443642  1
  C  C275  1  0.73270357  0.23432040  0.27835055  1
  N  N276  1  0.58273305  0.12547147  0.38768564  1
  C  C277  1  0.62809325  0.30919382  0.45906501  1
  H  H278  1  0.60034666  0.35536011  0.42787015  1
  H  H279  1  0.56080713  0.40658424  0.12649909  1
  C  C280  1  0.69688454  0.28480788  0.33396418  1
  H  H281  1  0.64022031  0.07610999  0.29524433  1
  C  C282  1  0.68031740  0.06972594  0.15026982  1
  C  C283  1  0.54424244  0.23516412  0.31643553  1
  O  O284  1  0.53176320  0.38341900  0.29879829  1
  C  C285  1  0.54534657  0.42374467  0.06790884  1
  C  C286  1  0.69430881  0.37502653  0.22812255  1
  C  C287  1  0.51562679  0.10925148  0.26415909  1
  C  C288  1  0.52907762  0.46521517  0.29502046  1
  H  H289  1  0.68855262  0.42620821  0.19417339  1
  O  O290  1  0.72553080  0.11461601  0.14767113  1
  H  H291  1  0.73067161  0.38231378  0.42649503  1
  H  H292  1  0.74485872  0.17538555  0.29350716  1
  H  H293  1  0.74601094  0.49542243  0.41568093  1
  H  H294  1  0.58439616  0.01501953  0.36149144  1
  H  H295  1  0.67855445  0.38856555  0.56104145  1
  Zn  Zn296  1  0.60414338  0.23072125  0.71356765  1
  O  O297  1  0.54415214  0.26158500  0.83548960  1
  C  C298  1  0.69710023  0.20704710  0.55419452  1
  Zn  Zn299  1  0.71034134  0.34901871  0.90492328  1
  H  H300  1  0.50252580  0.29661797  0.67002353  1
  C  C301  1  0.60011368  0.40865769  0.71851647  1
  H  H302  1  0.56880795  0.05352143  0.73441943  1
  C  C303  1  0.51021209  0.02252223  0.54546875  1
  C  C304  1  0.63455416  0.27820742  0.93908920  1
  O  O305  1  0.68757381  0.17588120  0.76668642  1
  O  O306  1  0.63210330  0.34936521  0.70340782  1
  C  C307  1  0.56134828  0.02155848  0.67935853  1
  C  C308  1  0.69574159  0.23136749  0.92813200  1
  C  C309  1  0.56532203  0.25550484  0.90575166  1
  C  C310  1  0.70309760  0.44342820  0.55780091  1
  H  H311  1  0.57489805  0.32512318  0.57445546  1
  H  H312  1  0.68982495  0.17393784  0.95667825  1
  C  C313  1  0.54629029  0.42881493  0.92112840  1
  H  H314  1  0.61245455  0.02349835  0.52321497  1
  C  C315  1  0.71619099  0.03576963  0.56165804  1
  H  H316  1  0.72169267  0.16933850  0.59193605  1
  O  O317  1  0.62888667  0.46637772  0.74610743  1
  C  C318  1  0.52275712  0.05956382  0.61867850  1
  H  H319  1  0.56759415  0.40767265  0.86128492  1
  N  N320  1  0.64477788  0.24210896  0.58414367  1
  O  O321  1  0.52681828  0.22857911  0.96088118  1
  C  C322  1  0.52309575  0.40874699  0.71067876  1
  Zn  Zn323  1  0.72919899  0.46896450  0.79315774  1
  H  H324  1  0.70086753  0.01849245  0.62294599  1
  C  C325  1  0.61239878  0.29453193  0.53901184  1
  O  O326  1  0.51169490  0.16602753  0.70009208  1
  H  H327  1  0.70157183  0.46547973  0.61984079  1
  C  C328  1  0.66002325  0.49238153  0.50466573  1
  C  C329  1  0.74655415  0.19529982  0.78487667  1
  C  C330  1  0.58514679  0.48644662  0.51299293  1
  H  H331  1  0.56670353  0.46037611  0.56997544  1
  C  C332  1  0.63357502  0.33946067  0.99769744  1
  C  C333  1  0.57792403  0.40160555  0.99296536  1
  C  C334  1  0.62126114  0.02125431  0.98446793  1
  C  C335  1  0.68374006  0.00376077  0.94039570  1
  O  O336  1  0.74230095  0.01365826  0.92168758  1
  C  C337  1  0.66367656  0.03689240  0.50233098  1
  C  C338  1  0.71839352  0.97456013  0.23701828  1
  C  C339  1  0.53032634  0.84188793  0.22387794  1
  C  C340  1  0.57642664  0.60943627  0.14485486  1
  N  N341  1  0.67755466  0.84492970  0.03485332  1
  C  C342  1  0.71071333  0.90307301  0.27345711  1
  H  H343  1  0.55813947  0.96685177  0.13920474  1
  C  C344  1  0.60342795  0.95065759  0.17842967  1
  H  H345  1  0.65544218  0.87024795  0.08257269  1
  O  O346  1  0.51675459  0.63042730  0.16824902  1
  C  C347  1  0.65156558  0.61794410  0.01861228  1
  H  H348  1  0.64679907  0.77470892  0.47910631  1
  C  C349  1  0.65265067  0.85673284  0.26833550  1
  C  C350  1  0.53590954  0.91971295  0.44605893  1
  C  C351  1  0.61468013  0.65808205  0.07853847  1
  O  O352  1  0.53402220  0.77548695  0.25252263  1
  C  C353  1  0.59767283  0.88456471  0.22378978  1
  C  C354  1  0.66485541  0.99718767  0.18729753  1
  H  H355  1  0.64875394  0.80454251  0.30485048  1
  O  O356  1  0.60044749  0.54991111  0.16667014  1
  C  C357  1  0.61928837  0.73525094  0.08234936  1
  H  H358  1  0.59461114  0.76806563  0.12885038  1
  Zn  Zn359  1  0.60642154  0.58175902  0.45421089  1
  O  O360  1  0.57189381  0.86532390  0.43374632  1
  C  C361  1  0.66455262  0.76908606  0.02475814  1
  C  C362  1  0.56733492  0.50687447  0.35992666  1
  C  C363  1  0.64037938  0.52301145  0.35154501  1
  H  H364  1  0.66047247  0.52478002  0.28906083  1
  H  H365  1  0.52560623  0.64667268  0.00956729  1
  H  H366  1  0.64904086  0.55688606  0.01807804  1
  C  C367  1  0.69218507  0.51048003  0.42512197  1
  C  C368  1  0.69817442  0.69029765  0.55052158  1
  H  H369  1  0.72268802  0.93787816  0.82692283  1
  C  C370  1  0.63271988  0.64287225  0.66750162  1
  N  N371  1  0.62624813  0.90764019  0.72189975  1
  Zn  Zn372  1  0.60577386  0.92234615  0.91188199  1
  C  C373  1  0.69278066  0.64045609  0.61998293  1
  C  C374  1  0.51325295  0.89291880  0.86195609  1
  H  H375  1  0.62097371  0.60418807  0.72061619  1
  H  H376  1  0.58133842  0.77142375  0.96193283  1
  H  H377  1  0.63905866  0.79112534  0.71015483  1
  H  H378  1  0.52425171  0.52841164  0.74554857  1
  C  C379  1  0.71633706  0.60995423  0.89092527  1
  N  N380  1  0.57826905  0.68514487  0.64823291  1
  C  C381  1  0.64567939  0.74133435  0.53632834  1
  C  C382  1  0.58035011  0.91398742  0.58704549  1
  C  C383  1  0.54121447  0.95292757  0.53221488  1
  H  H384  1  0.72866659  0.76227555  0.91041021  1
  C  C385  1  0.69697965  0.73470240  0.95739470  1
  C  C386  1  0.58725552  0.73547151  0.58973320  1
  H  H387  1  0.60444529  0.86020768  0.57187123  1
  C  C388  1  0.68729602  0.65829745  0.95878573  1
  C  C389  1  0.59167718  0.95041938  0.66319280  1
  C  C390  1  0.74036505  0.84144816  0.74102386  1
  C  C391  1  0.67315892  0.84197385  0.69840883  1
  H  H392  1  0.67653116  0.86340930  0.63528646  1
  H  H393  1  0.63793540  0.93251798  0.77492132  1
  H  H394  1  0.73574322  0.59796479  0.63010838  1
  O  O395  1  0.69700040  0.54080563  0.88992102  1
  C  C396  1  0.52726555  0.75944691  0.94594455  1
  H  H397  1  0.54147404  0.76988115  0.58784807  1
  C  C398  1  0.54524304  0.99497429  0.98381784  1
  H  H399  1  0.74941446  0.72083840  0.72166167  1
  C  C400  1  0.50065424  0.68960244  0.96956712  1
  O  O401  1  0.74988179  0.63483529  0.83529241  1
  C  C402  1  0.50601464  0.96481294  0.90735326  1
  H  H403  1  0.50263115  0.89553259  0.79309830  1
  C  C404  1  0.96608612  0.40792991  0.40701933  1
  H  H405  1  0.79738099  0.33921630  0.29221565  1
  C  C406  1  0.80463875  0.06865050  0.46165256  1
  C  C407  1  0.90394669  0.40300670  0.44947005  1
  C  C408  1  0.84517161  0.37904996  0.40950562  1
  H  H409  1  0.91150697  0.34240677  0.22056782  1
  C  C410  1  0.77881610  0.37856210  0.46244895  1
  C  C411  1  0.90727815  0.36024391  0.28330924  1
  H  H412  1  0.87987971  0.49892335  0.07169445  1
  C  C413  1  0.84662301  0.35613075  0.32645441  1
  H  H414  1  0.86008627  0.07668750  0.44720708  1
  C  C415  1  0.96904708  0.38615345  0.32427385  1
  H  H416  1  0.76599776  0.07666140  0.33571782  1
  C  C417  1  0.75443114  0.06463728  0.39948791  1
  C  C418  1  0.75008914  0.26446535  0.20492624  1
  H  H419  1  0.76466741  0.00707068  0.24757467  1
  H  H420  1  0.78206413  0.23452893  0.16201661  1
  H  H421  1  0.77255305  0.32141985  0.49409970  1
  C  C422  1  0.92631829  0.46159414  0.05594033  1
  O  O423  1  0.92582417  0.40309061  0.08665353  1
  H  H424  1  0.76625855  0.18824558  0.45084818  1
  H  H425  1  0.89808480  0.35001812  0.79626630  1
  C  C426  1  0.80470851  0.30879015  0.86832147  1
  Zn  Zn427  1  0.86073375  0.21830083  0.90720718  1
  O  O428  1  0.94516728  0.02753926  0.90792750  1
  O  O429  1  0.77552971  0.43126306  0.52474219  1
  N  N430  1  0.82151590  0.41622076  0.78733212  1
  H  H431  1  0.84479231  0.45273393  0.74723870  1
  H  H432  1  0.81979313  0.06559538  0.67557729  1
  N  N433  1  0.94331856  0.25545333  0.97855430  1
  C  C434  1  0.83849010  0.06180595  0.61307944  1
  C  C435  1  0.84678544  0.35855036  0.81761186  1
  O  O436  1  0.79747572  0.17452150  0.75086092  1
  C  C437  1  0.78564318  0.05444992  0.54321377  1
  H  H438  1  0.88526840  0.09855491  0.60148505  1
  C  C439  1  0.98604593  0.02306388  0.59156071  1
  C  C440  1  0.75748554  0.24070609  0.86918800  1
  H  H441  1  0.89750409  0.42215576  0.51407661  1
  C  C442  1  0.97236706  0.48991134  0.98914202  1
  H  H443  1  0.99184918  0.04386571  0.65572831  1
  H  H444  1  0.92925260  0.30798434  0.99446453  1
  C  C445  1  0.96392968  0.00881991  0.96535186  1
  C  C446  1  0.96648717  0.97134128  0.42416534  1
  C  C447  1  0.87398035  0.77630801  0.17035447  1
  H  H448  1  0.75415188  0.92644176  0.38622464  1
  N  N449  1  0.75890444  0.88767920  0.33809571  1
  H  H450  1  0.86799602  0.92318372  0.47547138  1
  C  C451  1  0.89219590  0.75141812  0.24677462  1
  H  H452  1  0.86338349  0.94887176  0.08957946  1
  H  H453  1  0.89805867  0.66535101  0.40872964  1
  C  C454  1  0.90864409  0.74535158  0.10175227  1
  Zn  Zn455  1  0.86347185  0.90568233  0.32773038  1
  O  O456  1  0.97863009  0.56170266  0.42761454  1
  H  H457  1  0.83751294  0.82257284  0.16331893  1
  O  O458  1  0.83076068  0.96747843  0.13606630  1
  H  H459  1  0.79255218  0.99713689  0.10514879  1
  H  H460  1  0.90726571  0.78911854  0.36538165  1
  N  N461  1  0.87313045  0.78858595  0.31754006  1
  Zn  Zn462  1  0.77240874  0.88615795  0.06552730  1
  C  C463  1  0.93677543  0.68729044  0.25601075  1
  C  C464  1  0.75763182  0.67936579  0.49246834  1
  C  C465  1  0.95529490  0.68811601  0.10536794  1
  C  C466  1  0.88895482  0.67182738  0.47394880  1
  C  C467  1  0.96230103  0.95119992  0.33587090  1
  H  H468  1  0.76062597  0.62108704  0.47305151  1
  C  C469  1  0.91693971  0.95523140  0.48653984  1
  C  C470  1  0.89361101  0.77773737  0.02277927  1
  O  O471  1  0.86283196  0.83599545  0.01587007  1
  H  H472  1  0.94994651  0.66496868  0.31852267  1
  C  C473  1  0.96989345  0.65772190  0.18312089  1
  Zn  Zn474  1  0.76252406  0.77474976  0.41221465  1
  H  H475  1  0.98596406  0.66606171  0.05094365  1
  H  H476  1  0.99494192  0.88357078  0.01221747  1
  O  O477  1  0.98926381  0.97233187  0.27502562  1
  N  N478  1  0.86716269  0.98433828  0.62127484  1
  H  H479  1  0.86893673  0.70305219  0.79418064  1
  C  C480  1  0.94268652  0.63308725  0.52448053  1
  C  C481  1  0.92119450  0.61452025  0.60716528  1
  Zn  Zn482  1  0.84621993  0.87054533  0.73156672  1
  O  O483  1  0.92810340  0.74958490  0.95834112  1
  H  H484  1  0.83787984  0.92641713  0.90125439  1
  C  C485  1  0.83579400  0.80168947  0.52508114  1
  C  C486  1  0.92741069  0.98720959  0.56593281  1
  H  H487  1  0.96261957  0.86008843  0.90819498  1
  C  C488  1  0.82699738  0.88204608  0.85831634  1
  C  C489  1  0.93836515  0.80501732  0.88262032  1
  O  O490  1  0.81517063  0.85454139  0.56230549  1
  H  H491  1  0.83197830  0.94362707  0.60094067  1
  C  C492  1  0.87479271  0.81965431  0.84029016  1
  C  C493  1  0.96027849  0.56590051  0.96564251  1
  O  O494  1  0.98602839  0.79161100  0.70563614  1
  Zn  Zn495  1  0.90974083  0.73102047  0.58549746  1
  O  O496  1  0.91528638  0.58142359  0.66717417  1
  C  C497  1  0.82727497  0.71705152  0.50637104  1
  C  C498  1  0.84558097  0.75848081  0.79071201  1
  H  H499  1  0.97718081  0.77427133  0.84942597  1
  C  C500  1  0.76124261  0.89442530  0.80511440  1
  H  H501  1  0.99966595  0.65662801  0.89186701  1
  H  H502  1  0.91733515  0.60074953  0.98626321  1
  C  C503  1  0.77776501  0.77041952  0.74325875  1
