# generated using pymatgen
data_Zn5H4C4(N9O2)2
_symmetry_space_group_name_H-M   'P 1'
_cell_length_a   16.83070698
_cell_length_b   18.27355022
_cell_length_c   12.70082636
_cell_angle_alpha   90.00000000
_cell_angle_beta   90.00000000
_cell_angle_gamma   90.00000000
_symmetry_Int_Tables_number   1
_chemical_formula_structural   Zn5H4C4(N9O2)2
_chemical_formula_sum   'Zn40 H32 C32 N144 O32'
_cell_volume   3906.22512039
_cell_formula_units_Z   8
loop_
 _symmetry_equiv_pos_site_id
 _symmetry_equiv_pos_as_xyz
  1  'x, y, z'
loop_
 _atom_site_type_symbol
 _atom_site_label
 _atom_site_symmetry_multiplicity
 _atom_site_fract_x
 _atom_site_fract_y
 _atom_site_fract_z
 _atom_site_occupancy
  Zn  Zn0  1  0.14640873  0.13754590  0.21629001  1
  N  N1  1  0.18069330  0.08075333  0.07369541  1
  N  N2  1  0.20083852  0.06328996  0.32170682  1
  C  C3  1  0.24096433  0.01254624  0.30786629  1
  N  N4  1  0.09355121  0.21317270  0.31547738  1
  C  C5  1  0.10126133  0.20324133  0.41808889  1
  O  O6  1  0.39832774  0.11599608  0.15488063  1
  N  N7  1  0.20114840  0.24435640  0.13187777  1
  O  O8  1  0.39299339  0.12369959  0.25142116  1
  N  N9  1  0.06008701  0.14947044  0.46288879  1
  N  N10  1  0.03061268  0.11452392  0.20595058  1
  N  N11  1  0.29573294  0.22921144  0.52051174  1
  H  H12  1  0.28289495  0.08625767  0.74503818  1
  H  H13  1  0.45567959  0.02279711  0.60908485  1
  N  N14  1  0.33501956  0.01160225  0.61608107  1
  Zn  Zn15  1  0.08982127  0.09745926  0.59264609  1
  N  N16  1  0.26340637  0.06810048  0.57118532  1
  N  N17  1  0.20491487  0.04437207  0.61934908  1
  O  O18  1  0.49589043  0.05615534  0.59023400  1
  N  N19  1  0.02968398  0.18949461  0.64645789  1
  Zn  Zn20  1  0.22657100  0.22332316  0.97274641  1
  N  N21  1  0.09303988  0.02031298  0.87746262  1
  N  N22  1  0.03725509  0.01835724  0.94320248  1
  H  H23  1  0.29613854  0.15884413  0.70642207  1
  O  O24  1  0.30170834  0.13426026  0.77200465  1
  N  N25  1  0.35195707  0.23137016  0.58036355  1
  N  N26  1  0.15012278  0.24561586  0.84776578  1
  H  H27  1  0.48093290  0.24313163  0.90901359  1
  N  N28  1  0.20571511  0.11241888  0.99727037  1
  O  O29  1  0.03876503  0.36076276  0.33454414  1
  N  N30  1  0.41971847  0.44015038  0.24978224  1
  N  N31  1  0.25956113  0.31749896  0.26628119  1
  N  N32  1  0.29339355  0.39047195  0.42785633  1
  Zn  Zn33  1  0.29651039  0.42680656  0.27472357  1
  C  C34  1  0.23114253  0.28614019  0.18617454  1
  N  N35  1  0.47128660  0.31469441  0.08961393  1
  Zn  Zn36  1  0.23345153  0.29454944  0.41393951  1
  H  H37  1  0.40772205  0.35656293  0.38329949  1
  N  N38  1  0.48213674  0.42746171  0.29534454  1
  N  N39  1  0.21980549  0.48513195  0.17673937  1
  H  H40  1  0.38791230  0.28132471  0.44070297  1
  O  O41  1  0.43165962  0.31058446  0.40718425  1
  N  N42  1  0.21956522  0.48235084  0.03917106  1
  O  O43  1  0.05563986  0.41250024  0.27173145  1
  N  N44  1  0.13485367  0.25407570  0.47525864  1
  N  N45  1  0.36233763  0.42394182  0.57339207  1
  Zn  Zn46  1  0.39767905  0.49098419  0.69407742  1
  O  O47  1  0.17836539  0.40927209  0.81165026  1
  N  N48  1  0.33670691  0.34450477  0.92337505  1
  N  N49  1  0.33614186  0.27817779  0.93396348  1
  Zn  Zn50  1  0.42277762  0.32680378  0.59502643  1
  H  H51  1  0.39043437  0.46628030  0.96048557  1
  C  C52  1  0.47245276  0.36860096  0.80836303  1
  N  N53  1  0.07281920  0.38271253  0.61726779  1
  N  N54  1  0.42524454  0.38380116  0.72857091  1
  N  N55  1  0.07749380  0.42461720  0.54210983  1
  N  N56  1  0.44108154  0.37194428  0.90209162  1
  H  H57  1  0.16050791  0.35861672  0.82336689  1
  N  N58  1  0.23966850  0.47853227  0.53813849  1
  H  H59  1  0.18773451  0.42414175  0.87990976  1
  C  C60  1  0.29929961  0.43209336  0.51329446  1
  N  N61  1  0.17292016  0.25505443  0.75856107  1
  Zn  Zn62  1  0.09723070  0.27844075  0.62475834  1
  N  N63  1  0.43351680  0.54058212  0.09870245  1
  N  N64  1  0.11695998  0.55200721  0.12648206  1
  O  O65  1  0.36775593  0.57200930  0.31078892  1
  N  N66  1  0.02644910  0.73047282  0.09699133  1
  O  O67  1  0.27829749  0.63629663  0.08657141  1
  H  H68  1  0.24166509  0.59844486  0.09729325  1
  N  N69  1  0.15616749  0.55024293  0.30857404  1
  C  C70  1  0.08331619  0.57319644  0.34034514  1
  Zn  Zn71  1  0.02726058  0.61871021  0.12999902  1
  N  N72  1  0.08699808  0.60453344  0.43416776  1
  C  C73  1  0.16081897  0.52657201  0.20229183  1
  N  N74  1  0.24863218  0.69595748  0.35213375  1
  N  N75  1  0.02027331  0.59355535  0.28821220  1
  N  N76  1  0.45295051  0.60391699  0.10250266  1
  H  H77  1  0.33005262  0.61172732  0.31484958  1
  H  H78  1  0.32243848  0.61443133  0.05659060  1
  N  N79  1  0.31430370  0.72056191  0.33172563  1
  O  O80  1  0.14280652  0.71389547  0.21348077  1
  H  H81  1  0.39962634  0.58200770  0.24207725  1
  Zn  Zn82  1  0.43331822  0.74325522  0.40749808  1
  H  H83  1  0.20012763  0.72047829  0.22920955  1
  N  N84  1  0.16304078  0.51867124  0.00984863  1
  Zn  Zn85  1  0.18192980  0.65728626  0.48386149  1
  N  N86  1  0.15480712  0.68460986  0.88012761  1
  N  N87  1  0.46241809  0.57731184  0.75520820  1
  N  N88  1  0.14009280  0.74208581  0.82899513  1
  N  N89  1  0.48586100  0.63906345  0.74605815  1
  Zn  Zn90  1  0.48201130  0.73623057  0.65287156  1
  N  N91  1  0.27180990  0.66997101  0.59194371  1
  N  N92  1  0.17098411  0.57296756  0.62629989  1
  Zn  Zn93  1  0.06878630  0.54099069  0.56892962  1
  Zn  Zn94  1  0.17795306  0.66625533  0.71178430  1
  N  N95  1  0.16145489  0.74443676  0.58794194  1
  N  N96  1  0.39349741  0.71289292  0.55869575  1
  C  C97  1  0.31933180  0.72603913  0.58186367  1
  C  C98  1  0.23770956  0.52249727  0.62886860  1
  O  O99  1  0.39778177  0.51654677  0.97266821  1
  N  N100  1  0.28188176  0.52553079  0.69886398  1
  N  N101  1  0.24512876  0.81536122  0.13735426  1
  Zn  Zn102  1  0.02333544  0.90547571  0.28532240  1
  O  O103  1  0.30565832  0.93391930  0.42102394  1
  N  N104  1  0.28785494  0.95683165  0.29849785  1
  N  N105  1  0.19733066  0.83071256  0.06906654  1
  Zn  Zn106  1  0.33225422  0.89929336  0.17487762  1
  N  N107  1  0.42764222  0.75771747  0.24898096  1
  N  N108  1  0.07768048  0.89480442  0.43098170  1
  N  N109  1  0.14617666  0.86988528  0.42054494  1
  N  N110  1  0.44585862  0.87507653  0.19419658  1
  N  N111  1  0.01854814  0.84665859  0.15069288  1
  H  H112  1  0.12863630  0.75772160  0.16877230  1
  N  N113  1  0.34628291  0.94925899  0.03363950  1
  C  C114  1  0.46760654  0.81035022  0.20776337  1
  N  N115  1  0.02959640  0.98900783  0.19174597  1
  H  H116  1  0.28620399  0.96835179  0.47075176  1
  Zn  Zn117  1  0.11343859  0.76560461  0.00100601  1
  N  N118  1  0.04431885  0.86246932  0.93473528  1
  N  N119  1  0.37406756  0.91292435  0.73858813  1
  Zn  Zn120  1  0.07059672  0.90252068  0.62649121  1
  C  C121  1  0.03204375  0.86083142  0.84670422  1
  N  N122  1  0.30111451  0.97338240  0.68281023  1
  N  N123  1  0.44169258  0.93224851  0.71611664  1
  N  N124  1  0.17563611  0.86542036  0.55442782  1
  C  C125  1  0.20758411  0.80132245  0.57870367  1
  N  N126  1  0.28952198  0.79410079  0.57041727  1
  N  N127  1  0.48611090  0.80489188  0.52242981  1
  N  N128  1  0.41120785  0.96868402  0.99681543  1
  O  O129  1  0.23819328  0.97237288  0.89055677  1
  H  H130  1  0.28838314  0.95556365  0.86782891  1
  N  N131  1  0.00549025  0.88195125  0.75810163  1
  N  N132  1  0.01831054  0.99924327  0.59927670  1
  O  O133  1  0.44044899  0.78287399  0.94869907  1
  O  O134  1  0.37065049  0.76918912  0.92238812  1
  H  H135  1  0.13589058  0.97752146  0.88405316  1
  H  H136  1  0.24801632  0.99585975  0.95441338  1
  C  C137  1  0.99984553  0.04902424  0.23228513  1
  Zn  Zn138  1  0.93686918  0.12459703  0.43787358  1
  Zn  Zn139  1  0.98303233  0.20673858  0.23841944  1
  N  N140  1  0.95314638  0.04480328  0.31761236  1
  N  N141  1  0.66432302  0.20222252  0.04910192  1
  N  N142  1  0.77225485  0.19155495  0.40482446  1
  C  C143  1  0.69069443  0.19007549  0.40258049  1
  O  O144  1  0.58536404  0.05081046  0.31775881  1
  N  N145  1  0.89557270  0.20298736  0.34164399  1
  C  C146  1  0.81981414  0.22099965  0.32591333  1
  N  N147  1  0.55165559  0.17677219  0.46232048  1
  N  N148  1  0.54809746  0.20113473  0.37195992  1
  N  N149  1  0.64344902  0.21289128  0.32754522  1
  N  N150  1  0.72831182  0.02649507  0.25237072  1
  H  H151  1  0.58056481  0.09983132  0.34369574  1
  H  H152  1  0.62805595  0.03194650  0.35807552  1
  N  N153  1  0.76962182  0.02356715  0.33093585  1
  N  N154  1  0.65120646  0.17263626  0.49052401  1
  Zn  Zn155  1  0.68281490  0.19046954  0.64565547  1
  N  N156  1  0.79305279  0.18836866  0.71096198  1
  Zn  Zn157  1  0.82499021  0.08536556  0.67652589  1
  N  N158  1  0.91414661  0.14476203  0.60117732  1
  N  N159  1  0.70898105  0.08469290  0.69638367  1
  N  N160  1  0.65190518  0.03757516  0.84816278  1
  N  N161  1  0.67249220  0.22208236  0.95935918  1
  H  H162  1  0.54770681  0.20797186  0.97054240  1
  C  C163  1  0.66354422  0.03449471  0.74267291  1
  C  C164  1  0.95133365  0.19275235  0.65896882  1
  C  C165  1  0.94162602  0.00187224  0.59209756  1
  C  C166  1  0.83939144  0.24680670  0.73161617  1
  O  O167  1  0.97111864  0.09968953  0.91499844  1
  H  H168  1  0.53886596  0.02614080  0.58845016  1
  O  O169  1  0.50698663  0.19589814  0.91957977  1
  N  N170  1  0.91954133  0.24681223  0.71829646  1
  O  O171  1  0.91559943  0.10086657  0.98348969  1
  N  N172  1  0.90686620  0.02847377  0.50367936  1
  C  C173  1  0.69448096  0.38495719  0.08005876  1
  O  O174  1  0.78470885  0.41905774  0.29049617  1
  N  N175  1  0.85736841  0.30830406  0.16219896  1
  N  N176  1  0.66871087  0.36441859  0.15821898  1
  C  C177  1  0.69081304  0.48596398  0.43785077  1
  N  N178  1  0.65465163  0.43853011  0.40260486  1
  H  H179  1  0.77943525  0.42142291  0.36755869  1
  Zn  Zn180  1  0.60323281  0.44372104  0.26040320  1
  O  O181  1  0.53711799  0.28119890  0.18040029  1
  N  N182  1  0.92656515  0.28910444  0.16090180  1
  N  N183  1  0.70299654  0.43563424  0.01453284  1
  H  H184  1  0.80656887  0.37298544  0.28324453  1
  N  N185  1  0.85435355  0.36086094  0.47663004  1
  N  N186  1  0.50155540  0.33050846  0.00581643  1
  H  H187  1  0.51615852  0.26864233  0.24736003  1
  N  N188  1  0.79521388  0.25121219  0.24156092  1
  Zn  Zn189  1  0.68061182  0.25467322  0.19376488  1
  Zn  Zn190  1  0.70412236  0.30394135  0.85342797  1
  Zn  Zn191  1  0.74728749  0.36832775  0.64519248  1
  N  N192  1  0.70856621  0.41259185  0.88220096  1
  N  N193  1  0.65389309  0.29753358  0.69558712  1
  N  N194  1  0.72869899  0.46119001  0.72213191  1
  N  N195  1  0.54525721  0.33694262  0.79344643  1
  C  C196  1  0.72500315  0.47175645  0.82368625  1
  N  N197  1  0.54279023  0.33483541  0.61111172  1
  N  N198  1  0.80164692  0.30495173  0.76206918  1
  C  C199  1  0.57527876  0.32606421  0.69044696  1
  H  H200  1  0.95986598  0.40764537  0.57255083  1
  O  O201  1  0.90421276  0.39749415  0.58434871  1
  O  O202  1  0.91255852  0.40641159  0.92286282  1
  O  O203  1  0.98289609  0.41756912  0.94878275  1
  N  N204  1  0.78632530  0.34868125  0.50103154  1
  C  C205  1  0.65658809  0.57873176  0.21171066  1
  N  N206  1  0.59319488  0.57332178  0.25883112  1
  N  N207  1  0.67954133  0.52583457  0.14978783  1
  N  N208  1  0.87891831  0.61076846  0.33855983  1
  N  N209  1  0.71588900  0.62457204  0.24170833  1
  N  N210  1  0.54691521  0.70679234  0.37297943  1
  N  N211  1  0.73996746  0.53305963  0.46764719  1
  N  N212  1  0.93399144  0.57195903  0.36109989  1
  N  N213  1  0.87461041  0.55317191  0.08161396  1
  Zn  Zn214  1  0.75399388  0.62569434  0.38958211  1
  Zn  Zn215  1  0.74880766  0.53846816  0.03020551  1
  Zn  Zn216  1  0.72921566  0.73071358  0.20495491  1
  N  N217  1  0.91167225  0.61053176  0.07944142  1
  N  N218  1  0.68481542  0.72756320  0.36519918  1
  N  N219  1  0.71107760  0.70441877  0.03379733  1
  Zn  Zn220  1  0.50288210  0.64930916  0.23975126  1
  H  H221  1  0.97835077  0.68106775  0.38409668  1
  O  O222  1  0.97782773  0.72905966  0.39900083  1
  H  H223  1  0.90375486  0.73552017  0.01961219  1
  C  C224  1  0.60834624  0.74667557  0.39041744  1
  Zn  Zn225  1  0.71655799  0.63046552  0.81770711  1
  N  N226  1  0.66912542  0.72745797  0.81193958  1
  N  N227  1  0.96273264  0.56308557  0.64248469  1
  Zn  Zn228  1  0.78172218  0.53322635  0.61603557  1
  N  N229  1  0.74697410  0.53138858  0.87271559  1
  C  C230  1  0.72150275  0.68895785  0.60844428  1
  N  N231  1  0.72536719  0.64618540  0.97848721  1
  N  N232  1  0.72461211  0.62956238  0.66201318  1
  N  N233  1  0.67618062  0.74969477  0.62803917  1
  N  N234  1  0.90269998  0.54355332  0.59699687  1
  O  O235  1  0.95903117  0.71718348  0.73508294  1
  H  H236  1  0.53722458  0.57866344  0.88850918  1
  O  O237  1  0.57483768  0.56574374  0.94102866  1
  N  N238  1  0.76200318  0.69427021  0.51956776  1
  O  O239  1  0.95720764  0.74310775  0.64381709  1
  O  O240  1  0.54832821  0.51658926  0.55974784  1
  H  H241  1  0.53944312  0.56028197  0.99970920  1
  O  O242  1  0.56567285  0.58059573  0.53403180  1
  N  N243  1  0.60051328  0.90250001  0.14782758  1
  Zn  Zn244  1  0.69255164  0.97509286  0.11348121  1
  C  C245  1  0.87631643  0.81538053  0.26063553  1
  N  N246  1  0.54257511  0.78622098  0.16408860  1
  C  C247  1  0.60399131  0.83192612  0.13647588  1
  N  N248  1  0.60918303  0.81630729  0.43883388  1
  Zn  Zn249  1  0.77686390  0.79254508  0.43740289  1
  N  N250  1  0.62524617  0.95993545  0.49293996  1
  N  N251  1  0.91448018  0.86688209  0.31230007  1
  N  N252  1  0.67094432  0.80878309  0.09606009  1
  C  C253  1  0.98411740  0.78117154  0.14400603  1
  N  N254  1  0.80899438  0.96596471  0.04125291  1
  Zn  Zn255  1  0.87146273  0.96505907  0.36869805  1
  N  N256  1  0.80196609  0.79883422  0.28722568  1
  N  N257  1  0.87431017  0.94888808  0.07312195  1
  N  N258  1  0.61228322  0.98659505  0.00648878  1
  N  N259  1  0.91123696  0.77009386  0.18699744  1
  Zn  Zn260  1  0.99839259  0.94125936  0.06085748  1
  N  N261  1  0.83290988  0.87755995  0.49690726  1
  Zn  Zn262  1  0.50470296  0.94758028  0.08094496  1
  H  H263  1  0.94453353  0.75698089  0.34612261  1
  N  N264  1  0.83939240  0.86413014  0.59351049  1
  Zn  Zn265  1  0.68975993  0.81559332  0.91739358  1
  N  N266  1  0.80964622  0.84024164  0.85552807  1
  N  N267  1  0.87483148  0.81299756  0.88422772  1
  C  C268  1  0.62871999  0.97863119  0.90640627  1
  N  N269  1  0.62372275  0.91466625  0.86962294  1
  N  N270  1  0.63316932  0.98517924  0.68133776  1
  Zn  Zn271  1  0.88283715  0.89932925  0.73391132  1
  Zn  Zn272  1  0.56057471  0.89904691  0.73259472  1
  N  N273  1  0.57215942  0.78816294  0.73486564  1
  N  N274  1  0.56227906  0.90225522  0.56248443  1
  O  O275  1  0.85841720  0.75474603  0.98954596  1
  C  C276  1  0.64223790  0.75704093  0.72852130  1
  N  N277  1  0.89859387  0.99736070  0.67809013  1
  N  N278  1  0.66174469  0.99861459  0.55326802  1
  C  C279  1  0.55102685  0.84333347  0.50610658  1
