# generated using pymatgen
data_ZnH5C10N3O4
_symmetry_space_group_name_H-M   'P 1'
_cell_length_a   23.78870005
_cell_length_b   20.07399838
_cell_length_c   10.60773222
_cell_angle_alpha   90.00000000
_cell_angle_beta   90.00000000
_cell_angle_gamma   90.00000000
_symmetry_Int_Tables_number   1
_chemical_formula_structural   ZnH5C10N3O4
_chemical_formula_sum   'Zn16 H80 C160 N48 O64'
_cell_volume   5065.55625805
_cell_formula_units_Z   16
loop_
 _symmetry_equiv_pos_site_id
 _symmetry_equiv_pos_as_xyz
  1  'x, y, z'
loop_
 _atom_site_type_symbol
 _atom_site_label
 _atom_site_symmetry_multiplicity
 _atom_site_fract_x
 _atom_site_fract_y
 _atom_site_fract_z
 _atom_site_occupancy
  C  C0  1  0.30992356  0.04267662  0.30306960  1
  H  H1  1  0.19720901  0.14213549  0.33746155  1
  O  O2  1  0.18679531  0.01913154  0.24359743  1
  Zn  Zn3  1  0.18578528  0.15468589  0.07215793  1
  H  H4  1  0.31237399  0.04424305  0.41062397  1
  H  H5  1  0.47705688  0.02751609  0.47677114  1
  H  H6  1  0.02598695  0.22100504  0.01460008  1
  N  N7  1  0.12093977  0.08171412  0.05985164  1
  N  N8  1  0.02207318  0.07451077  0.05300436  1
  C  C9  1  0.30514935  0.06631431  0.08742818  1
  C  C10  1  0.09909099  0.04754178  0.16240805  1
  H  H11  1  0.30356090  0.14895012  0.23048120  1
  C  C12  1  0.19259346  0.19575584  0.33797939  1
  C  C13  1  0.30625701  0.09359448  0.20905234  1
  C  C14  1  0.03920266  0.04571119  0.15505999  1
  C  C15  1  0.19582119  0.24042026  0.43979722  1
  N  N16  1  0.18591670  0.21653343  0.22120048  1
  C  C17  1  0.13710492  0.01592134  0.25418031  1
  H  H18  1  0.43360482  0.24433219  0.18695508  1
  O  O19  1  0.39525256  0.23382641  0.16804342  1
  C  C20  1  0.47918092  0.04161101  0.19404110  1
  O  O21  1  0.00674805  0.22447018  0.18865137  1
  O  O22  1  0.06596431  0.24199025  0.36364020  1
  O  O23  1  0.43171925  0.05819821  0.16431220  1
  C  C24  1  0.07785394  0.18731702  0.67995830  1
  H  H25  1  0.09952000  0.08259229  0.73571712  1
  H  H26  1  0.08964666  0.18761826  0.57937031  1
  Zn  Zn27  1  0.43891064  0.09924895  0.91792180  1
  C  C28  1  0.32723988  0.18696228  0.83147023  1
  O  O29  1  0.30548480  0.02349371  0.60471424  1
  C  C30  1  0.27228462  0.20213198  0.87973652  1
  C  C31  1  0.06535354  0.14734421  0.88901705  1
  C  C32  1  0.45651746  0.05002458  0.66933291  1
  N  N33  1  0.35068462  0.13169748  0.89758190  1
  C  C34  1  0.36039134  0.21721102  0.73624970  1
  C  C35  1  0.08247583  0.13399694  0.76099969  1
  N  N36  1  0.43641276  0.03724129  0.78369197  1
  H  H37  1  0.13341730  0.02257407  0.89941431  1
  N  N38  1  0.25980366  0.15770225  0.96766068  1
  C  C39  1  0.04371048  0.21085062  0.92161213  1
  H  H40  1  0.40995157  0.14084030  0.74502231  1
  O  O41  1  0.41626046  0.18561343  0.70020919  1
  H  H42  1  0.47172265  0.10233609  0.67155408  1
  C  C43  1  0.46337804  0.00476427  0.56868181  1
  O  O44  1  0.16681724  0.00601166  0.83954757  1
  H  H45  1  0.20071404  0.22179286  0.54001888  1
  C  C46  1  0.21800002  0.24521410  0.83016079  1
  C  C47  1  0.06904436  0.09675421  0.99459506  1
  C  C48  1  0.30549252  0.11706478  0.97474589  1
  O  O49  1  0.20462146  0.24457763  0.72235702  1
  N  N50  1  0.31095521  0.48050159  0.29280923  1
  H  H51  1  0.17292783  0.38300548  0.27554934  1
  C  C52  1  0.40680896  0.31076599  0.35659863  1
  N  N53  1  0.48549399  0.34756858  0.46317898  1
  C  C54  1  0.18017973  0.33058870  0.29471555  1
  O  O55  1  0.31923541  0.28126394  0.25781009  1
  C  C56  1  0.46699759  0.30613284  0.37260481  1
  C  C57  1  0.29242161  0.45988180  0.18167603  1
  C  C58  1  0.18821394  0.30934997  0.42141938  1
  C  C59  1  0.17617839  0.28115367  0.19829997  1
  H  H60  1  0.28444317  0.40567975  0.20396105  1
  Zn  Zn61  1  0.31404283  0.41481758  0.44188758  1
  N  N62  1  0.38941096  0.36010029  0.43957253  1
  C  C63  1  0.36946322  0.27617824  0.26443411  1
  H  H64  1  0.17005653  0.29005556  0.09736432  1
  H  H65  1  0.04176058  0.47142014  0.26719466  1
  O  O66  1  0.45884820  0.47448995  0.04945167  1
  O  O67  1  0.07904956  0.46698588  0.30153406  1
  C  C68  1  0.02133371  0.25227282  0.31225768  1
  C  C69  1  0.29186603  0.49953587  0.07177769  1
  H  H70  1  0.36429116  0.39736086  0.68605934  1
  O  O71  1  0.06160680  0.45804940  0.71151440  1
  C  C72  1  0.04721845  0.26350791  0.82834637  1
  C  C73  1  0.21451338  0.45049617  0.63058930  1
  C  C74  1  0.15822469  0.43725060  0.64410527  1
  C  C75  1  0.39673964  0.43468647  0.69211956  1
  C  C76  1  0.19155378  0.36163708  0.52692514  1
  H  H77  1  0.03272316  0.31635412  0.83815151  1
  C  C78  1  0.48865067  0.47622545  0.62866972  1
  C  C79  1  0.44144130  0.43244369  0.60518341  1
  N  N80  1  0.14163934  0.38432298  0.57529869  1
  Zn  Zn81  1  0.06908616  0.32905130  0.58689257  1
  C  C82  1  0.43940464  0.38045339  0.50245388  1
  N  N83  1  0.23893413  0.40046780  0.55490737  1
  H  H84  1  0.28182050  0.48059126  0.97639586  1
  O  O85  1  0.18763311  0.26846024  0.91475331  1
  C  C86  1  0.10818340  0.48072329  0.72682126  1
  C  C87  1  0.39447263  0.48313428  0.78680508  1
  H  H88  1  0.35727172  0.48642399  0.84916401  1
  N  N89  1  0.06771423  0.25030881  0.71595313  1
  O  O90  1  0.34600805  0.26944041  0.69809466  1
  N  N91  1  0.08720921  0.61871764  0.09076138  1
  C  C92  1  0.30623579  0.56880739  0.08800200  1
  Zn  Zn93  1  0.16899445  0.65137398  0.06501483  1
  C  C94  1  0.32356564  0.59176841  0.20655756  1
  C  C95  1  0.10532036  0.52504854  0.24391801  1
  H  H96  1  0.43853116  0.73962215  0.19618469  1
  C  C97  1  0.06740674  0.56569832  0.16032251  1
  H  H98  1  0.33809723  0.64212730  0.23134683  1
  C  C99  1  0.19182757  0.69614358  0.31922561  1
  O  O100  1  0.15263647  0.53921685  0.27084440  1
  N  N101  1  0.18491569  0.71707003  0.19912042  1
  C  C102  1  0.01307066  0.54739585  0.12552294  1
  C  C103  1  0.32483277  0.54302065  0.30418574  1
  H  H104  1  0.18527818  0.64020273  0.32769495  1
  H  H105  1  0.34284042  0.55279068  0.39724623  1
  C  C106  1  0.19913468  0.74096914  0.41755660  1
  O  O107  1  0.39671763  0.72439262  0.19653772  1
  C  C108  1  0.03924584  0.62311592  0.00084657  1
  H  H109  1  0.05618166  0.70143386  0.56932693  1
  C  C110  1  0.32295466  0.69807106  0.87579543  1
  Zn  Zn111  1  0.42671236  0.59939372  0.92670678  1
  C  C112  1  0.04260914  0.65586656  0.75993161  1
  C  C113  1  0.26307254  0.70088330  0.87301119  1
  N  N114  1  0.34426857  0.64357823  0.92600928  1
  N  N115  1  0.43573049  0.52746571  0.79699563  1
  C  C116  1  0.03903824  0.67240028  0.88960217  1
  H  H117  1  0.04131586  0.60334816  0.73120650  1
  C  C118  1  0.05265461  0.70831870  0.67445314  1
  C  C119  1  0.29709915  0.61730255  0.97902502  1
  C  C120  1  0.48042469  0.52354329  0.72286058  1
  N  N121  1  0.24441515  0.64805358  0.94582455  1
  O  O122  1  0.12153935  0.52500563  0.80007173  1
  O  O123  1  0.42565816  0.72241999  0.85019766  1
  O  O124  1  0.22708452  0.55697421  0.74698957  1
  H  H125  1  0.18481228  0.54329903  0.75746682  1
  C  C126  1  0.24937096  0.50760446  0.67651488  1
  C  C127  1  0.22436645  0.74937051  0.82577406  1
  O  O128  1  0.29886497  0.50958488  0.64974818  1
  H  H129  1  0.46419969  0.51072225  0.97740938  1
  O  O130  1  0.16538851  0.73222124  0.86173978  1
  C  C131  1  0.37801656  0.74364526  0.82331802  1
  H  H132  1  0.19910506  0.72044746  0.51757129  1
  C  C133  1  0.03915339  0.74046316  0.92492640  1
  C  C134  1  0.41079068  0.81429913  0.34354030  1
  C  C135  1  0.19829245  0.81130177  0.39836742  1
  C  C136  1  0.47089187  0.81428237  0.35939599  1
  N  N137  1  0.48861438  0.85870099  0.44199427  1
  N  N138  1  0.39005090  0.86103630  0.43081403  1
  C  C139  1  0.37176003  0.77676340  0.26455919  1
  H  H140  1  0.18859782  0.88168252  0.24461331  1
  O  O141  1  0.06698658  0.81621571  0.28538207  1
  Zn  Zn142  1  0.31578927  0.90845224  0.41929086  1
  C  C143  1  0.30896459  0.95434233  0.16748968  1
  N  N144  1  0.31097529  0.97865154  0.28260115  1
  H  H145  1  0.18805191  0.78203181  0.07526671  1
  H  H146  1  0.30534729  0.89863924  0.16679377  1
  C  C147  1  0.19282001  0.78087094  0.17638412  1
  C  C148  1  0.19296069  0.83036829  0.27249046  1
  O  O149  1  0.32152534  0.78340436  0.26735211  1
  H  H150  1  0.07583869  0.97955639  0.33482738  1
  H  H151  1  0.02979173  0.75532894  0.02395844  1
  O  O152  1  0.48868930  0.99968888  0.27682738  1
  C  C153  1  0.01722837  0.80761747  0.28086535  1
  O  O154  1  0.11205514  0.98599776  0.36749354  1
  C  C155  1  0.30462771  0.99819085  0.06085677  1
  C  C156  1  0.44175233  0.88772838  0.48403075  1
  C  C157  1  0.22576284  0.94457510  0.61106852  1
  C  C158  1  0.41480508  0.92514492  0.70386790  1
  Zn  Zn159  1  0.07056501  0.83959875  0.58012019  1
  O  O160  1  0.36843036  0.79651026  0.77918456  1
  C  C161  1  0.44387558  0.93899451  0.58872977  1
  C  C162  1  0.17335414  0.92877701  0.66634397  1
  C  C163  1  0.14248089  0.95210010  0.77938709  1
  C  C164  1  0.04988485  0.78775696  0.83095866  1
  N  N165  1  0.23955328  0.90978112  0.50625698  1
  O  O166  1  0.09980589  0.92569789  0.81910883  1
  H  H167  1  0.39556791  0.87634587  0.71787509  1
  H  H168  1  0.29385077  0.98091908  0.96118049  1
  N  N169  1  0.15447592  0.87472389  0.59452192  1
  C  C170  1  0.41749913  0.97388134  0.79880302  1
  N  N171  1  0.05657443  0.77169581  0.70944191  1
  H  H172  1  0.05485398  0.83922609  0.84315048  1
  O  O173  1  0.23390344  0.80112470  0.77494633  1
  H  H174  1  0.40170492  0.96253742  0.89118412  1
  O  O175  1  0.28539987  0.98550921  0.78939515  1
  C  C176  1  0.27958132  0.98723059  0.67447285  1
  C  C177  1  0.19672882  0.86663900  0.50134632  1
  H  H178  1  0.14576754  0.76264959  0.81223473  1
  C  C179  1  0.52967262  0.07207289  0.10814799  1
  C  C180  1  0.81384023  0.11293792  0.18079511  1
  C  C181  1  0.62507258  0.03163853  0.19988358  1
  C  C182  1  0.58772649  0.06824316  0.11050320  1
  N  N183  1  0.69140882  0.21914544  0.18068481  1
  C  C184  1  0.84427506  0.11100319  0.40416866  1
  O  O185  1  0.67536001  0.03249376  0.19046397  1
  H  H186  1  0.86006206  0.19333460  0.27675535  1
  H  H187  1  0.73233279  0.15334606  0.28661078  1
  N  N188  1  0.61194499  0.10502993  0.01501685  1
  C  C189  1  0.71474937  0.20292678  0.29170589  1
  C  C190  1  0.84212364  0.14161712  0.28687752  1
  H  H191  1  0.86266268  0.13107059  0.48893792  1
  Zn  Zn192  1  0.68726973  0.15629619  0.04162719  1
  C  C193  1  0.81661031  0.14716634  0.05275765  1
  N  N194  1  0.81391593  0.05423405  0.42690464  1
  H  H195  1  0.76686425  0.02117801  0.13287144  1
  C  C196  1  0.78783793  0.05081123  0.20415199  1
  C  C197  1  0.78817260  0.02644927  0.32981556  1
  C  C198  1  0.98503543  0.01390539  0.24042363  1
  H  H199  1  0.74103295  0.23990425  0.48275572  1
  O  O200  1  0.50392014  0.22360927  0.22821552  1
  O  O201  1  0.93731103  0.02183491  0.20167544  1
  H  H202  1  0.96560141  0.23557242  0.19186633  1
  H  H203  1  0.55746578  0.00273512  0.26608527  1
  N  N204  1  0.51266552  0.11518749  0.01450439  1
  H  H205  1  0.60458348  0.12435004  0.72980296  1
  C  C206  1  0.88839823  0.19131637  0.76978374  1
  O  O207  1  0.87368685  0.20672460  0.66736840  1
  C  C208  1  0.55695646  0.18632411  0.85582218  1
  Zn  Zn209  1  0.93823490  0.08687076  0.99641879  1
  H  H210  1  0.92637051  0.09522382  0.72508305  1
  C  C211  1  0.58516459  0.22413651  0.65053494  1
  H  H212  1  0.60281689  0.21902236  0.55687896  1
  O  O213  1  0.69490501  0.17660168  0.77601381  1
  C  C214  1  0.79001995  0.17271311  0.86535474  1
  C  C215  1  0.58282733  0.17116395  0.73847361  1
  C  C216  1  0.84985545  0.17535110  0.87199486  1
  C  C217  1  0.93275726  0.04127444  0.73406327  1
  C  C218  1  0.74392797  0.18774175  0.76305850  1
  H  H219  1  0.80858714  0.20655102  0.67137510  1
  O  O220  1  0.94552389  0.18902872  0.80207830  1
  N  N221  1  0.77136865  0.15297583  0.98122032  1
  H  H222  1  0.96604971  0.19941129  0.72498280  1
  N  N223  1  0.94124944  0.02093356  0.85337834  1
  O  O224  1  0.63360334  0.01377147  0.81215526  1
  H  H225  1  0.94084006  0.01482921  0.53886847  1
  C  C226  1  0.56012549  0.13272516  0.95874308  1
  O  O227  1  0.74162502  0.01727143  0.83123591  1
  O  O228  1  0.76435821  0.20560296  0.64613868  1
  H  H229  1  0.69902973  0.00554455  0.81421881  1
  N  N230  1  0.87034412  0.15516910  0.98885341  1
  C  C231  1  0.51582797  0.26314211  0.30914568  1
  H  H232  1  0.65194327  0.38074822  0.23039146  1
  Zn  Zn233  1  0.83087521  0.41436169  0.42429084  1
  C  C234  1  0.79012583  0.46340399  0.18851333  1
  C  C235  1  0.67249539  0.33084291  0.25690918  1
  C  C236  1  0.69622580  0.31684411  0.37547813  1
  O  O237  1  0.96705269  0.46318645  0.25450907  1
  C  C238  1  0.98086450  0.29184822  0.37907076  1
  H  H239  1  0.77722274  0.41010151  0.18320698  1
  N  N240  1  0.89949284  0.35025058  0.43765473  1
  O  O241  1  0.83897880  0.33029223  0.22242321  1
  C  C242  1  0.92269583  0.31094987  0.35209802  1
  C  C243  1  0.71718413  0.25065935  0.38919071  1
  N  N244  1  0.81727228  0.48179190  0.29417824  1
  C  C245  1  0.67339992  0.28149565  0.16259799  1
  C  C246  1  0.88472794  0.30115135  0.22656897  1
  O  O247  1  0.90318724  0.27019902  0.13779594  1
  C  C248  1  0.50465424  0.49878450  0.12390545  1
  H  H249  1  0.65700873  0.28265366  0.06301901  1
  O  O250  1  0.64418905  0.48383195  0.20353477  1
  C  C251  1  0.69923222  0.37077048  0.47938572  1
  O  O252  1  0.51078653  0.47226410  0.22234866  1
  O  O253  1  0.56427099  0.26604578  0.34891643  1
  N  N254  1  0.99055640  0.31605865  0.49813551  1
  H  H255  1  0.75568072  0.49434708  0.00056591  1
  C  C256  1  0.72917210  0.44452163  0.61643307  1
  C  C257  1  0.93191871  0.39950635  0.63605456  1
  Zn  Zn258  1  0.56723076  0.34940710  0.53334362  1
  C  C259  1  0.91793397  0.44112222  0.84867747  1
  H  H260  1  0.92456330  0.33364577  0.79925597  1
  O  O261  1  0.59093135  0.44063655  0.77458811  1
  C  C262  1  0.93804857  0.46803529  0.60187971  1
  C  C263  1  0.67097474  0.43359411  0.62210263  1
  N  N264  1  0.56312915  0.28447750  0.67089212  1
  H  H265  1  0.52517861  0.35097293  0.77943119  1
  N  N266  1  0.65290401  0.38723017  0.54542502  1
  C  C267  1  0.92349556  0.38774371  0.76476338  1
  C  C268  1  0.53916808  0.29711604  0.78052699  1
  C  C269  1  0.61629979  0.47298034  0.69999826  1
  H  H270  1  0.91828834  0.43819028  0.95318428  1
  N  N271  1  0.74851923  0.40394583  0.52071249  1
  C  C272  1  0.93787449  0.34948830  0.53029938  1
  O  O273  1  0.82298867  0.49267130  0.62664028  1
  H  H274  1  0.52713544  0.47571575  0.57386713  1
  H  H275  1  0.94438468  0.47391390  0.50046931  1
  C  C276  1  0.53486120  0.25131418  0.87982723  1
  H  H277  1  0.84595297  0.49610618  0.70120733  1
  H  H278  1  0.51675317  0.26092277  0.97078978  1
  C  C279  1  0.76638284  0.49086615  0.68445882  1
  O  O280  1  0.67283485  0.57915846  0.26219557  1
  H  H281  1  0.68730466  0.66958326  0.28486218  1
  C  C282  1  0.64344698  0.54407661  0.19302477  1
  C  C283  1  0.69006262  0.72513430  0.28580933  1
  C  C284  1  0.53985683  0.55326786  0.07127468  1
  C  C285  1  0.83143769  0.54502894  0.31299882  1
  C  C286  1  0.59447179  0.57815926  0.09663218  1
  H  H287  1  0.84777812  0.54755497  0.41120835  1
  C  C288  1  0.77667207  0.50939258  0.09358007  1
  C  C289  1  0.79755398  0.57553739  0.10638629  1
  O  O290  1  0.91391436  0.50562874  0.11599540  1
  C  C291  1  0.82239452  0.59609446  0.22080558  1
  H  H292  1  0.83297916  0.64689829  0.24111154  1
  Zn  Zn293  1  0.68190309  0.67898348  0.02660368  1
  N  N294  1  0.60534240  0.63049263  0.02643999  1
  C  C295  1  0.95942629  0.50115995  0.16914731  1
  N  N296  1  0.68723136  0.74832709  0.16858440  1
  H  H297  1  0.69212551  0.74186717  0.48583268  1
  N  N298  1  0.99797317  0.58269502  0.02220202  1
  O  O299  1  0.88716548  0.73839605  0.23989414  1
  O  O300  1  0.50574177  0.73536071  0.19705749  1
  C  C301  1  0.57770439  0.72497987  0.63076789  1
  N  N302  1  0.92663847  0.50294442  0.81428594  1
  N  N303  1  0.51721588  0.58879269  0.97324613  1
  N  N304  1  0.84441694  0.63091909  0.91824965  1
  C  C305  1  0.77876438  0.70736183  0.85851546  1
  C  C306  1  0.93701040  0.51702015  0.69392210  1
  C  C307  1  0.88128264  0.70058750  0.73313562  1
  C  C308  1  0.56429524  0.69357945  0.85427042  1
  C  C309  1  0.57700792  0.67462120  0.72624032  1
  H  H310  1  0.94304957  0.57150850  0.67474895  1
  N  N311  1  0.75838589  0.67298211  0.95563358  1
  H  H312  1  0.59044898  0.62436015  0.70041206  1
  C  C313  1  0.83371743  0.67932200  0.83709183  1
  Zn  Zn314  1  0.91750087  0.58331070  0.93956343  1
  O  O315  1  0.61125746  0.53292884  0.67842280  1
  O  O316  1  0.91874470  0.66674128  0.69580086  1
  O  O317  1  0.75531490  0.52668739  0.76725832  1
  C  C318  1  0.56129857  0.63757338  0.94817533  1
  H  H319  1  0.58928630  0.71900979  0.53372087  1
  H  H320  1  0.51210802  0.56235922  0.75606272  1
  C  C321  1  0.79892368  0.62866271  0.99625636  1
  O  O322  1  0.56760190  0.77355468  0.32347936  1
  C  C323  1  0.92126504  0.81636788  0.39836808  1
  H  H324  1  0.68488141  0.91248666  0.22708174  1
  C  C325  1  0.69304472  0.83732835  0.37538054  1
  C  C326  1  0.68721747  0.85786049  0.24945028  1
  C  C327  1  0.51955140  0.76770525  0.28996341  1
  C  C328  1  0.68822274  0.81283692  0.14684857  1
  H  H329  1  0.68389862  0.82458979  0.04568557  1
  C  C330  1  0.97890151  0.83173729  0.37869808  1
  O  O331  1  0.99750900  0.98806194  0.33796294  1
  C  C332  1  0.69229164  0.76686664  0.39048578  1
  O  O333  1  0.59797468  0.98814866  0.28173663  1
  C  C334  1  0.69952441  0.88132984  0.49880769  1
  O  O335  1  0.99617143  0.76531112  0.18157484  1
  N  N336  1  0.99730327  0.86727741  0.48087654  1
  H  H337  1  0.76521936  0.98268439  0.36675177  1
  O  O338  1  0.82759772  0.77329530  0.37896795  1
  C  C339  1  0.87382092  0.77350258  0.32999923  1
  H  H340  1  0.95762614  0.76206050  0.21219675  1
  C  C341  1  0.95359638  0.95683573  0.87326674  1
  H  H342  1  0.96393499  0.95038263  0.97453865  1
  C  C343  1  0.72768234  0.94010645  0.65386194  1
  N  N344  1  0.75027213  0.89978571  0.56225020  1
  O  O345  1  0.75545131  0.77524639  0.67296420  1
  O  O346  1  0.81601678  0.96728396  0.74269773  1
  O  O347  1  0.87957309  0.76136371  0.70772390  1
  O  O348  1  0.70369964  0.78892933  0.83914899  1
  H  H349  1  0.54113583  0.85971948  0.77351235  1
  C  C350  1  0.66785495  0.93927564  0.64681294  1
  N  N351  1  0.56470677  0.78766589  0.65586174  1
  C  C352  1  0.94483134  0.92724489  0.65680164  1
  Zn  Zn353  1  0.82076049  0.82761169  0.59488459  1
  C  C354  1  0.95004097  0.90738893  0.78143952  1
  C  C355  1  0.55112743  0.80519518  0.77212384  1
  H  H356  1  0.54122425  0.78239069  0.97311730  1
  H  H357  1  0.96125364  0.85670696  0.81318935  1
  C  C358  1  0.76700062  0.97159926  0.74573204  1
  C  C359  1  0.93630449  0.99708660  0.63444639  1
  N  N360  1  0.65173323  0.90331919  0.54669447  1
  Zn  Zn361  1  0.56990142  0.86221827  0.52205325  1
  C  C362  1  0.94734510  0.87905285  0.54718399  1
  O  O363  1  0.56968890  0.96716473  0.69248794  1
  C  C364  1  0.61788805  0.97792252  0.72366981  1
  C  C365  1  0.55244100  0.76275374  0.87777444  1
  C  C366  1  0.74048879  0.75941907  0.78458479  1
  N  N367  1  0.89861775  0.84944743  0.50004632  1
