# generated using pymatgen
data_Zn3H12C22(N3O4)2
_symmetry_space_group_name_H-M   'P 1'
_cell_length_a   17.18551349
_cell_length_b   14.08113205
_cell_length_c   21.71926519
_cell_angle_alpha   90.00000000
_cell_angle_beta   90.00000000
_cell_angle_gamma   90.00000000
_symmetry_Int_Tables_number   1
_chemical_formula_structural   Zn3H12C22(N3O4)2
_chemical_formula_sum   'Zn24 H96 C176 N48 O64'
_cell_volume   5255.87723265
_cell_formula_units_Z   8
loop_
 _symmetry_equiv_pos_site_id
 _symmetry_equiv_pos_as_xyz
  1  'x, y, z'
loop_
 _atom_site_type_symbol
 _atom_site_label
 _atom_site_symmetry_multiplicity
 _atom_site_fract_x
 _atom_site_fract_y
 _atom_site_fract_z
 _atom_site_occupancy
  H  H0  1  0.24386089  0.16586801  0.06203860  1
  H  H1  1  0.41637573  0.31574162  0.08039889  1
  C  C2  1  0.45834555  0.25951398  0.08295422  1
  N  N3  1  0.26057699  0.23919412  0.13497916  1
  C  C4  1  0.25122537  0.24012611  0.07321499  1
  Zn  Zn5  1  0.01816751  0.37902789  0.18412799  1
  C  C6  1  0.45125585  0.17060657  0.05288531  1
  H  H7  1  0.06706894  0.18833993  0.20053965  1
  C  C8  1  0.26718368  0.32448792  0.16072310  1
  N  N9  1  0.43861453  0.49150130  0.18206509  1
  Zn  Zn10  1  0.26329741  0.11568955  0.18396762  1
  H  H11  1  0.27750021  0.31650146  0.21368705  1
  O  O12  1  0.27085959  0.00209753  0.08961963  1
  C  C13  1  0.25845464  0.40847825  0.12828651  1
  N  N14  1  0.00055220  0.26006965  0.13718466  1
  C  C15  1  0.02522289  0.09655317  0.12315473  1
  C  C16  1  0.24052189  0.41198088  0.06343370  1
  C  C17  1  0.24012923  0.31988250  0.03582327  1
  H  H18  1  0.04687396  0.03129647  0.14064179  1
  H  H19  1  0.40024109  0.16490584  0.02043844  1
  O  O20  1  0.46979304  0.49880797  0.06750024  1
  C  C21  1  0.03660336  0.18020017  0.15587868  1
  H  H22  1  0.26215182  0.47951795  0.15287425  1
  C  C23  1  0.13553960  0.00521781  0.24796999  1
  O  O24  1  0.24777617  0.21500891  0.38260988  1
  C  C25  1  0.09807730  0.38831136  0.30879603  1
  O  O26  1  0.04479550  0.27126304  0.37984995  1
  C  C27  1  0.17938863  0.11071549  0.30980247  1
  C  C28  1  0.18773151  0.44510205  0.40965369  1
  C  C29  1  0.23704570  0.19615419  0.32651168  1
  H  H30  1  0.34479696  0.03321834  0.46538479  1
  C  C31  1  0.12668297  0.05045799  0.34433987  1
  O  O32  1  0.26199178  0.24853080  0.28652568  1
  Zn  Zn33  1  0.14162019  0.24438684  0.43385745  1
  C  C34  1  0.10821683  0.03951507  0.41569283  1
  O  O35  1  0.13827090  0.09656899  0.45473743  1
  H  H36  1  0.38522902  0.01383818  0.29142100  1
  O  O37  1  0.16247719  0.38861140  0.45009089  1
  C  C38  1  0.15555041  0.44351297  0.34382852  1
  H  H39  1  0.49172409  0.42397756  0.45071996  1
  C  C40  1  0.04044486  0.30572904  0.32578118  1
  N  N41  1  0.09138786  0.42341549  0.25127609  1
  N  N42  1  0.18737780  0.07925778  0.25248284  1
  C  C43  1  0.49976469  0.44941977  0.49775237  1
  H  H44  1  0.45369521  0.26052966  0.47975897  1
  C  C45  1  0.14030314  0.49930108  0.25007569  1
  H  H46  1  0.01285507  0.43404738  0.44626793  1
  O  O47  1  0.49834199  0.01476835  0.39528608  1
  O  O48  1  0.49361487  0.28928989  0.25203266  1
  H  H49  1  0.32407916  0.16469202  0.49542564  1
  C  C50  1  0.21720012  0.18422132  0.63498041  1
  N  N51  1  0.32518813  0.48190260  0.68859452  1
  H  H52  1  0.45005960  0.14161855  0.57284809  1
  C  C53  1  0.28980950  0.16276563  0.53902968  1
  O  O54  1  0.27638413  0.49184878  0.56907625  1
  N  N55  1  0.23748250  0.27165971  0.62308597  1
  C  C56  1  0.47687657  0.21129273  0.57182500  1
  C  C57  1  0.27496163  0.23994233  0.57539427  1
  H  H58  1  0.18095217  0.03581743  0.64767865  1
  Zn  Zn59  1  0.22483484  0.39753490  0.66638681  1
  C  C60  1  0.20952628  0.09225441  0.61932772  1
  C  C61  1  0.25024173  0.07796272  0.56038363  1
  N  N62  1  0.41457925  0.01731448  0.71248061  1
  N  N63  1  0.49920690  0.22556013  0.63031194  1
  Zn  Zn64  1  0.49422531  0.12210909  0.69513627  1
  C  C65  1  0.47646317  0.27904997  0.52577660  1
  N  N66  1  0.16328738  0.44339801  0.73792163  1
  C  C67  1  0.36129292  0.49440659  0.74741676  1
  C  C68  1  0.10457544  0.45593492  0.83236704  1
  O  O69  1  0.05259077  0.20439154  0.83056640  1
  C  C70  1  0.21926785  0.32706709  0.81265172  1
  H  H71  1  0.21882866  0.43771982  0.93362120  1
  O  O72  1  0.07752052  0.39497052  0.93458417  1
  C  C73  1  0.05938144  0.45899373  0.89599198  1
  C  C74  1  0.16087391  0.40174630  0.79579592  1
  C  C75  1  0.08186010  0.12923955  0.81043904  1
  O  O76  1  0.24300837  0.32704759  0.88561473  1
  H  H77  1  0.40263193  0.02261846  0.99140777  1
  O  O78  1  0.25499074  0.27447193  0.78181163  1
  C  C79  1  0.19153214  0.07134447  0.89466346  1
  Zn  Zn80  1  0.11973976  0.25978504  0.90450410  1
  C  C81  1  0.14006740  0.06213227  0.83677956  1
  O  O82  1  0.17317196  0.13733821  0.93356000  1
  H  H83  1  0.34195632  0.45436443  0.78736724  1
  H  H84  1  0.29252640  0.28807969  0.87899287  1
  O  O85  1  0.46138059  0.20743064  0.80368188  1
  H  H86  1  0.36579853  0.04260710  0.80102132  1
  C  C87  1  0.10640703  0.00001830  0.75207743  1
  N  N88  1  0.06843586  0.08906399  0.75075575  1
  H  H89  1  0.23192755  0.31152465  0.98451391  1
  O  O90  1  0.24343894  0.01362171  0.90257783  1
  C  C91  1  0.47916205  0.79153109  0.16260552  1
  O  O92  1  0.03589832  0.77174809  0.21569759  1
  C  C93  1  0.27091960  0.69447194  0.17566025  1
  H  H94  1  0.01664622  0.94980854  0.03954931  1
  C  C95  1  0.35012848  0.62870550  0.19317442  1
  Zn  Zn96  1  0.36323073  0.74286958  0.05901984  1
  O  O97  1  0.25323193  0.70282017  0.12041911  1
  C  C98  1  0.42734112  0.87400167  0.18573710  1
  H  H99  1  0.18436129  0.69903257  0.00916358  1
  C  C100  1  0.40736841  0.53401914  0.23132717  1
  O  O101  1  0.33328257  0.88210501  0.05077790  1
  O  O102  1  0.37800699  0.59952614  0.04577970  1
  C  C103  1  0.41568424  0.54944173  0.08425989  1
  N  N104  1  0.43556815  0.90117320  0.24405804  1
  H  H105  1  0.13921099  0.96098574  0.20254895  1
  C  C106  1  0.39531158  0.56345522  0.15436456  1
  C  C107  1  0.36642166  0.93376053  0.15591587  1
  C  C108  1  0.31967817  0.93865151  0.09619142  1
  H  H109  1  0.24443262  0.56717507  0.05106920  1
  O  O110  1  0.24041518  0.73702999  0.21677618  1
  H  H111  1  0.14289972  0.54363183  0.20741992  1
  O  O112  1  0.00520545  0.80739392  0.12211416  1
  C  C113  1  0.23682087  0.50001099  0.02624801  1
  O  O114  1  0.47191395  0.77154865  0.10640741  1
  C  C115  1  0.38262278  0.97388981  0.24986470  1
  N  N116  1  0.33971562  0.99551427  0.19891181  1
  C  C117  1  0.23490010  0.73160932  0.42466944  1
  N  N118  1  0.36008631  0.60091409  0.25193224  1
  H  H119  1  0.19628990  0.66982352  0.42771319  1
  N  N120  1  0.18256299  0.50895151  0.30393192  1
  H  H121  1  0.35359893  0.78177768  0.30876823  1
  H  H122  1  0.36628096  0.92926591  0.37315790  1
  N  N123  1  0.01253469  0.76716305  0.37601780  1
  C  C124  1  0.31985917  0.78748421  0.35377155  1
  Zn  Zn125  1  0.27311714  0.59888611  0.32484242  1
  C  C126  1  0.29004415  0.88525223  0.44707831  1
  C  C127  1  0.23803524  0.81179009  0.46476106  1
  N  N128  1  0.27396932  0.71619336  0.37373569  1
  H  H129  1  0.02763637  0.69418342  0.29867283  1
  C  C130  1  0.32653003  0.87171598  0.38859915  1
  Zn  Zn131  1  0.02266776  0.88404944  0.32462647  1
  C  C132  1  0.01267436  0.59163545  0.43980011  1
  C  C133  1  0.02567992  0.68368977  0.34819991  1
  N  N134  1  0.10085043  0.98750172  0.30369892  1
  C  C135  1  0.30514069  0.97570702  0.48070428  1
  C  C136  1  0.00254198  0.68137530  0.46863690  1
  C  C137  1  0.02933417  0.59438516  0.37569758  1
  H  H138  1  0.03413251  0.52658018  0.35082022  1
  C  C139  1  0.00111710  0.76778689  0.43655620  1
  O  O140  1  0.05560429  0.98833983  0.43084575  1
  H  H141  1  0.49513238  0.51467447  0.37899077  1
  C  C142  1  0.00482679  0.50046601  0.47188664  1
  O  O143  1  0.24034970  0.50375302  0.42155025  1
  H  H144  1  0.21677807  0.92716790  0.54311408  1
  C  C145  1  0.45135000  0.95093202  0.61254690  1
  C  C146  1  0.25936837  0.98692812  0.53242588  1
  Zn  Zn147  1  0.40443043  0.75954065  0.57067156  1
  C  C148  1  0.39792447  0.94902137  0.67220711  1
  O  O149  1  0.22303407  0.78247427  0.69762341  1
  O  O150  1  0.36552107  0.61338832  0.55066663  1
  O  O151  1  0.49424277  0.69942930  0.62615547  1
  C  C152  1  0.27249291  0.81723676  0.66547375  1
  C  C153  1  0.41896153  0.59547678  0.69240152  1
  C  C154  1  0.36379299  0.54807786  0.65170309  1
  O  O155  1  0.43117042  0.90358419  0.56502760  1
  O  O156  1  0.28458720  0.79659232  0.60954492  1
  H  H157  1  0.10081952  0.94683955  0.70961486  1
  C  C158  1  0.33141886  0.89151969  0.69345528  1
  C  C159  1  0.34413305  0.55869910  0.58920776  1
  H  H160  1  0.09716596  0.57304403  0.70703091  1
  C  C161  1  0.48792157  0.66635507  0.68043429  1
  H  H162  1  0.00527949  0.68931197  0.51847406  1
  C  C163  1  0.11205469  0.51832232  0.74371077  1
  H  H164  1  0.28060147  0.50327615  0.52633245  1
  O  O165  1  0.00165266  0.71584709  0.72231522  1
  N  N166  1  0.41483851  0.56041348  0.74999843  1
  N  N167  1  0.31705688  0.92230739  0.74976063  1
  H  H168  1  0.20567772  0.81533042  0.50835645  1
  Zn  Zn169  1  0.23116372  0.88477711  0.80929099  1
  H  H170  1  0.35311203  0.74802555  0.84832197  1
  C  C171  1  0.01883783  0.85720631  0.94682299  1
  C  C172  1  0.20653701  0.69218845  0.95862491  1
  C  C173  1  0.23429235  0.68160631  0.83194431  1
  C  C174  1  0.23487980  0.60026941  0.86587351  1
  C  C175  1  0.21939678  0.59889450  0.93250288  1
  C  C176  1  0.45583109  0.89450855  0.95177881  1
  H  H177  1  0.19664705  0.84594752  0.93071947  1
  H  H178  1  0.33916763  0.90697945  0.91546973  1
  N  N179  1  0.21966464  0.76645802  0.85762643  1
  C  C180  1  0.20462690  0.76924295  0.91919811  1
  C  C181  1  0.39107272  0.85774563  0.91829080  1
  C  C182  1  0.45900224  0.98242919  0.98720183  1
  H  H183  1  0.24493481  0.68022128  0.78062368  1
  N  N184  1  0.45997995  0.72287734  0.88062073  1
  N  N185  1  0.15466311  0.98640992  0.80151595  1
  H  H186  1  0.05630940  0.71137258  0.91960996  1
  Zn  Zn187  1  0.47226582  0.60382786  0.82983878  1
  C  C188  1  0.02123120  0.77494253  0.91122232  1
  C  C189  1  0.39610988  0.77554659  0.88230707  1
  N  N190  1  0.07514951  0.52480767  0.79807650  1
  H  H191  1  0.25164446  0.53431926  0.84271524  1
  H  H192  1  0.05463862  0.85839235  0.98906089  1
  C  C193  1  0.36829837  0.99661238  0.76084810  1
  C  C194  1  0.22640126  0.50761355  0.96276215  1
  O  O195  1  0.01265266  0.52054208  0.90872271  1
  O  O196  1  0.79063443  0.00313504  0.08834757  1
  C  C197  1  0.50885515  0.09927949  0.05780505  1
  C  C198  1  0.79283160  0.39913289  0.11922234  1
  H  H199  1  0.74280228  0.15171709  0.06134576  1
  C  C200  1  0.78832669  0.31477451  0.15386846  1
  H  H201  1  0.62396367  0.08015748  0.10367727  1
  C  C202  1  0.95285212  0.25556157  0.08940860  1
  H  H203  1  0.79743812  0.30847856  0.20366450  1
  C  C204  1  0.76407617  0.30352974  0.03023452  1
  C  C205  1  0.52188412  0.01212511  0.02250148  1
  N  N206  1  0.77415646  0.22857836  0.13057157  1
  C  C207  1  0.76163075  0.22686740  0.07035066  1
  Zn  Zn208  1  0.77558654  0.11807392  0.19080085  1
  C  C209  1  0.77746136  0.39781504  0.05538998  1
  C  C210  1  0.57418793  0.12824682  0.09485962  1
  N  N211  1  0.52105613  0.28542961  0.11353365  1
  C  C212  1  0.57474790  0.21719996  0.12256810  1
  N  N213  1  0.61136600  0.43298113  0.22504355  1
  H  H214  1  0.62771128  0.24845293  0.14561365  1
  N  N215  1  0.84903288  0.01337772  0.21089428  1
  H  H216  1  0.81387856  0.46449481  0.14137840  1
  C  C217  1  0.94052756  0.17607095  0.05174285  1
  H  H218  1  0.91986597  0.32094885  0.08854650  1
  H  H219  1  0.50508638  0.34051521  0.21686589  1
  Zn  Zn220  1  0.54193844  0.42450032  0.14356419  1
  N  N221  1  0.94270664  0.49290754  0.20938908  1
  C  C222  1  0.67298872  0.49882477  0.23537144  1
  C  C223  1  0.97949052  0.08960495  0.06783588  1
  C  C224  1  0.77994357  0.48797079  0.01811545  1
  C  C225  1  0.98775616  0.01274361  0.02395575  1
  O  O226  1  0.98011202  0.47422320  0.09157768  1
  N  N227  1  0.68912469  0.06696064  0.24964429  1
  H  H228  1  0.89996309  0.17740381  0.01289163  1
  C  C229  1  0.67439602  0.10488980  0.30488951  1
  O  O230  1  0.51850326  0.30583072  0.35092644  1
  H  H231  1  0.68864144  0.04350343  0.44836306  1
  H  H232  1  0.88850752  0.04363469  0.30500749  1
  C  C233  1  0.61226844  0.04508664  0.33074957  1
  Zn  Zn234  1  0.61263853  0.25103495  0.41389309  1
  C  C235  1  0.53528284  0.32743279  0.29813059  1
  O  O236  1  0.63130342  0.38940970  0.43176353  1
  C  C237  1  0.72806779  0.18641252  0.32625939  1
  O  O238  1  0.57945856  0.11245092  0.43296845  1
  C  C239  1  0.56163387  0.05478701  0.39081995  1
  C  C240  1  0.64811088  0.45034397  0.32596092  1
  C  C241  1  0.59543748  0.40085610  0.28490431  1
  O  O242  1  0.77051375  0.22506252  0.29008018  1
  O  O243  1  0.72131105  0.21767773  0.38235420  1
  C  C244  1  0.66715718  0.44461137  0.39706762  1
  H  H245  1  0.92355299  0.46759762  0.30552538  1
  H  H246  1  0.95910285  0.32627194  0.48758035  1
  H  H247  1  0.71914241  0.18965119  0.47942999  1
  O  O248  1  0.99227507  0.28082177  0.28995015  1
  C  C249  1  0.71661286  0.26450704  0.56908717  1
  H  H250  1  0.53803266  0.31334774  0.69547754  1
  C  C251  1  0.98340452  0.33154172  0.66446403  1
  C  C252  1  0.73790952  0.09567320  0.56137324  1
  C  C253  1  0.74896014  0.09625320  0.62677956  1
  H  H254  1  0.97618664  0.48739136  0.66097817  1
  Zn  Zn255  1  0.72823497  0.38805658  0.67878559  1
  C  C256  1  0.74724306  0.18331695  0.65811448  1
  C  C257  1  0.72527746  0.18514625  0.53135150  1
  H  H258  1  0.70498383  0.33627482  0.55291449  1
  H  H259  1  0.75308487  0.02753839  0.65149589  1
  N  N260  1  0.72885394  0.26385992  0.63011728  1
  Zn  Zn261  1  0.99143525  0.12860882  0.68268699  1
  H  H262  1  0.75138975  0.18961203  0.70806040  1
  N  N263  1  0.97973403  0.24694229  0.63512394  1
  N  N264  1  0.80669327  0.49715950  0.70357671  1
  C  C265  1  0.97770857  0.41992899  0.63368715  1
  O  O266  1  0.98084639  0.01092812  0.59153258  1
  C  C267  1  0.85096678  0.02803438  0.74582841  1
  H  H268  1  0.98787118  0.32893133  0.71418535  1
  C  C269  1  0.50366408  0.37357284  0.54377783  1
  C  C270  1  0.52782695  0.31041752  0.64529016  1
  C  C271  1  0.96094507  0.32905862  0.53988873  1
  C  C272  1  0.97464954  0.41743083  0.56742840  1
  C  C273  1  0.97298915  0.24542387  0.57555440  1
  H  H274  1  0.96920543  0.17270699  0.55631829  1
  H  H275  1  0.56651890  0.45272268  0.61732054  1
  C  C276  1  0.53752721  0.38580520  0.60316657  1
  O  O277  1  0.77090622  0.47655685  0.58167023  1
  N  N278  1  0.89986496  0.03702678  0.69649203  1
  C  C279  1  0.64995114  0.39174719  0.81481375  1
  O  O280  1  0.74945434  0.27031606  0.80302957  1
  C  C281  1  0.70081905  0.31601935  0.83667759  1
  C  C282  1  0.63300543  0.05013519  0.85147291  1
  O  O283  1  0.58030465  0.39353954  0.95374691  1
  O  O284  1  0.69919054  0.30523988  0.89395812  1
  C  C285  1  0.55980668  0.45524494  0.91695265  1
  C  C286  1  0.81669980  0.19954942  0.84076022  1
  C  C287  1  0.57144061  0.10692425  0.82216455  1
  O  O288  1  0.65957592  0.10701980  0.95832213  1
  C  C289  1  0.66526339  0.03855707  0.91907668  1
  C  C290  1  0.59248719  0.44498035  0.84840728  1
  Zn  Zn291  1  0.60749304  0.24420992  0.95047615  1
  O  O292  1  0.85819878  0.15491821  0.86423967  1
  H  H293  1  0.82471853  0.47869613  0.80469076  1
  H  H294  1  0.71667533  0.43440457  0.94339367  1
  H  H295  1  0.85273958  0.08302728  0.78423051  1
  C  C296  1  0.59115759  0.49648857  0.75778172  1
  H  H297  1  0.93259045  0.07910050  0.95060662  1
  C  C298  1  0.50790956  0.18341969  0.84322942  1
  O  O299  1  0.50384800  0.21748492  0.89758365  1
  C  C300  1  0.96443394  0.01721916  0.96354516  1
  N  N301  1  0.57272688  0.08608212  0.76443197  1
  C  C302  1  0.74477712  0.49447056  0.96383445  1
  H  H303  1  0.76174566  0.29476374  0.97820092  1
  N  N304  1  0.64736911  0.42214224  0.75377022  1
  C  C305  1  0.62565212  0.01480943  0.75480364  1
  H  H306  1  0.64192567  0.94044523  0.20283482  1
  O  O307  1  0.74234203  0.71897159  0.20740777  1
  C  C308  1  0.78925992  0.67765484  0.17549569  1
  C  C309  1  0.83987249  0.94847743  0.10279382  1
  C  C310  1  0.91434306  0.55806200  0.17081116  1
  H  H311  1  0.81153322  0.54756497  0.03833280  1
  O  O312  1  0.78431764  0.69519409  0.11614579  1
  H  H313  1  0.69968947  0.54625916  0.19850696  1
  C  C314  1  0.94649746  0.54952505  0.10132725  1
  O  O315  1  0.86909660  0.89408413  0.06210112  1
  C  C316  1  0.87701320  0.95053811  0.17070925  1
  O  O317  1  0.93698722  0.60483287  0.05695010  1
  O  O318  1  0.52099986  0.74348075  0.19459479  1
  C  C319  1  0.93284487  0.89306951  0.20144741  1
  Zn  Zn320  1  0.89714838  0.75441449  0.08128457  1
  C  C321  1  0.85288762  0.60695326  0.20226422  1
  C  C322  1  0.99624344  0.81453801  0.18073550  1
  H  H323  1  0.58083614  0.98206118  0.01634489  1
  H  H324  1  0.76804580  0.68886349  0.01469752  1
  C  C325  1  0.64304980  0.98797844  0.24289514  1
  C  C326  1  0.74111064  0.80245783  0.34907554  1
  C  C327  1  0.91138710  0.51034142  0.26350231  1
  H  H328  1  0.76096429  0.79908989  0.29741302  1
  N  N329  1  0.52718814  0.75641115  0.35932048  1
  C  C330  1  0.52476372  0.61160039  0.45547646  1
  C  C331  1  0.71447433  0.88910500  0.44419532  1
  Zn  Zn332  1  0.52410773  0.85755929  0.30052946  1
  C  C333  1  0.73694803  0.71785729  0.44099887  1
  H  H334  1  0.74311044  0.64326396  0.45879408  1
  N  N335  1  0.74578929  0.72100667  0.37941437  1
  N  N336  1  0.69321211  0.50904792  0.29258337  1
  Zn  Zn337  1  0.76903748  0.59948509  0.32945221  1
  C  C338  1  0.72407995  0.79983275  0.47497564  1
  C  C339  1  0.72494845  0.88962791  0.37953786  1
  C  C340  1  0.51785460  0.66325468  0.34721602  1
  H  H341  1  0.71975362  0.95301801  0.35226364  1
  H  H342  1  0.53113812  0.85619331  0.42793202  1
  N  N343  1  0.59770286  0.97254192  0.29312178  1
  O  O344  1  0.71400647  0.50113409  0.41659845  1
  N  N345  1  0.93826926  0.92126297  0.26044157  1
  C  C346  1  0.53689065  0.77796167  0.41951667  1
  C  C347  1  0.53878709  0.71223765  0.46681496  1
  N  N348  1  0.85136247  0.57887827  0.26184453  1
  C  C349  1  0.50908567  0.59090109  0.39178345  1
  H  H350  1  0.51173767  0.66046526  0.29575014  1
  C  C351  1  0.71116415  0.98334037  0.47540924  1
  H  H352  1  0.99904285  0.84129752  0.45516372  1
  C  C353  1  0.88859636  0.99671468  0.26468588  1
  O  O354  1  0.73548145  0.76510996  0.70760468  1
  Zn  Zn355  1  0.86796330  0.74685973  0.57546596  1
  H  H356  1  0.75681481  0.93837287  0.56101482  1
  H  H357  1  0.63943680  0.97306665  0.71077675  1
  H  H358  1  0.57472430  0.54284174  0.72013997  1
  C  C359  1  0.82369576  0.90381387  0.69434388  1
  C  C360  1  0.92608837  0.95554911  0.59951744  1
  C  C361  1  0.96279108  0.68389853  0.68054325  1
  C  C362  1  0.76990989  0.81820187  0.67309818  1
  O  O363  1  0.97713552  0.70163550  0.62622185  1
  C  C364  1  0.81244736  0.54564918  0.59481578  1
  O  O365  1  0.91314897  0.89394843  0.56081738  1
  O  O366  1  0.76534405  0.80364144  0.61427061  1
  C  C367  1  0.89768322  0.60649892  0.69796328  1
  O  O368  1  0.83446956  0.60516437  0.55378432  1
  C  C369  1  0.84149580  0.55603450  0.66173604  1
  C  C370  1  0.87840156  0.96162321  0.66080346  1
  H  H371  1  0.98760040  0.57703945  0.55879085  1
  O  O372  1  0.52824409  0.69706543  0.72127480  1
  H  H373  1  0.71257173  0.79351597  0.52480729  1
  N  N374  1  0.80632284  0.94781664  0.74772798  1
  H  H375  1  0.55180533  0.72984857  0.51389708  1
  H  H376  1  0.52749738  0.56519951  0.55679592  1
  O  O377  1  0.51535436  0.99028178  0.61319488  1
  C  C378  1  0.98871972  0.50662708  0.53238393  1
  C  C379  1  0.74011971  0.99866017  0.53215686  1
  C  C380  1  0.51810470  0.54511572  0.50766433  1
  H  H381  1  0.72316071  0.68233627  0.78878203  1
  C  C382  1  0.74169657  0.59295399  0.93736240  1
  Zn  Zn383  1  0.97798045  0.62532067  0.82030602  1
  H  H384  1  0.75106115  0.83506926  0.94426824  1
  Zn  Zn385  1  0.73676070  0.88469999  0.82163654  1
  N  N386  1  0.55579097  0.50736144  0.81103801  1
  C  C387  1  0.74377638  0.76209045  0.92766428  1
  N  N388  1  0.73227196  0.76221327  0.86645730  1
  H  H389  1  0.56958019  0.70190838  0.90299661  1
  C  C390  1  0.72664824  0.67737538  0.84073461  1
  C  C391  1  0.97060217  0.93319179  0.92533414  1
  H  H392  1  0.89173683  0.96931409  0.84532656  1
  C  C393  1  0.72366763  0.59059038  0.87318109  1
  C  C394  1  0.92787204  0.91735641  0.86965938  1
  C  C395  1  0.75480177  0.68238724  0.96594394  1
  H  H396  1  0.70884828  0.52426471  0.84916173  1
  H  H397  1  0.89681115  0.80350682  0.80191242  1
  C  C398  1  0.83669515  0.51678118  0.76118713  1
  O  O399  1  0.69716369  0.96512845  0.93422510  1
  C  C400  1  0.52511640  0.83541619  0.94923159  1
  N  N401  1  0.97713946  0.75667261  0.86188598  1
  C  C402  1  0.52183433  0.75484350  0.91242501  1
  C  C403  1  0.92813487  0.82702342  0.84416083  1
  H  H404  1  0.58245929  0.86649669  0.96650190  1
  N  N405  1  0.65996477  0.99003209  0.80904420  1
  O  O406  1  0.51924832  0.52373596  0.92928102  1
  N  N407  1  0.89316193  0.58082399  0.75711994  1
