# generated using pymatgen
data_Cu3H20C28(NO7)2
_symmetry_space_group_name_H-M   'P 1'
_cell_length_a   25.36005063
_cell_length_b   21.16987636
_cell_length_c   16.90452771
_cell_angle_alpha   90.00000000
_cell_angle_beta   90.00000000
_cell_angle_gamma   90.00000000
_symmetry_Int_Tables_number   1
_chemical_formula_structural   Cu3H20C28(NO7)2
_chemical_formula_sum   'Cu24 H160 C224 N16 O112'
_cell_volume   9075.51918776
_cell_formula_units_Z   8
loop_
 _symmetry_equiv_pos_site_id
 _symmetry_equiv_pos_as_xyz
  1  'x, y, z'
loop_
 _atom_site_type_symbol
 _atom_site_label
 _atom_site_symmetry_multiplicity
 _atom_site_fract_x
 _atom_site_fract_y
 _atom_site_fract_z
 _atom_site_occupancy
  C  C0  1  0.00992583  0.06736101  0.22915017  1
  O  O1  1  0.04270463  0.02925311  0.23392792  1
  C  C2  1  0.07279664  0.42158288  0.19788487  1
  H  H3  1  0.18615798  0.48816760  0.02078001  1
  O  O4  1  0.04082641  0.38932538  0.19931053  1
  O  O5  1  0.00605165  0.47841469  0.37208601  1
  H  H6  1  0.01196137  0.48290646  0.25254673  1
  H  H7  1  0.23358816  0.48349637  0.20209811  1
  C  C8  1  0.04000626  0.01164253  0.91490979  1
  H  H9  1  0.07775221  0.03214588  0.94121619  1
  H  H10  1  0.00180894  0.07011179  0.82075598  1
  O  O11  1  0.22951764  0.49262556  0.71906226  1
  H  H12  1  0.01547174  0.13103123  0.95610949  1
  C  C13  1  0.07230845  0.70112593  0.17409341  1
  H  H14  1  0.12986845  0.78066965  0.45523187  1
  C  C15  1  0.02152488  0.72411415  0.15804713  1
  C  C16  1  0.01694770  0.91278582  0.43432649  1
  N  N17  1  0.16104000  0.58756034  0.08767668  1
  C  C18  1  0.02179124  0.68513341  0.03074332  1
  O  O19  1  0.19767634  0.76952587  0.07095159  1
  H  H20  1  0.13319391  0.85164351  0.04683329  1
  O  O21  1  0.02600140  0.76613009  0.29657649  1
  Cu  Cu22  1  0.22975440  0.72547537  0.15838979  1
  C  C23  1  0.23176308  0.73251502  0.45317681  1
  O  O24  1  0.18001677  0.66406044  0.18264566  1
  H  H25  1  0.02112700  0.69490890  0.45472999  1
  C  C26  1  0.21708806  0.78196312  0.31408263  1
  H  H27  1  0.09286376  0.71126252  0.23163523  1
  O  O28  1  0.08740622  0.95612937  0.04412368  1
  H  H29  1  0.11078681  0.57155628  0.43570695  1
  O  O30  1  0.20126593  0.77943032  0.24294986  1
  C  C31  1  0.09441237  0.66209475  0.11609957  1
  C  C32  1  0.20843403  0.57170037  0.09128339  1
  O  O33  1  0.04394850  0.93521559  0.48258682  1
  H  H34  1  0.02879175  0.61293850  0.32387468  1
  C  C35  1  0.16745157  0.68635853  0.36338922  1
  C  C36  1  0.15388451  0.63792248  0.41431545  1
  O  O37  1  0.11896041  0.59279939  0.38735019  1
  C  C38  1  0.14943213  0.63487959  0.13474493  1
  H  H39  1  0.05124065  0.59083522  0.18584496  1
  C  C40  1  0.00772622  0.58557671  0.20019011  1
  C  C41  1  0.20425651  0.73419000  0.38109415  1
  H  H42  1  0.15035775  0.68530551  0.30032855  1
  H  H43  1  0.00519534  0.79892027  0.32445858  1
  H  H44  1  0.23694675  0.59535696  0.13456688  1
  C  C45  1  0.07036484  0.65230775  0.04464966  1
  C  C46  1  0.18017637  0.63796542  0.48805899  1
  C  C47  1  0.22301322  0.51684689  0.03631430  1
  H  H48  1  0.24194316  0.86786504  0.24688311  1
  H  H49  1  0.07481679  0.82334725  0.49665088  1
  Cu  Cu50  1  0.06251421  0.88400743  0.65760642  1
  H  H51  1  0.15727694  0.79066123  0.62268932  1
  H  H52  1  0.04574287  0.88070823  0.82940379  1
  H  H53  1  0.17583502  0.84097663  0.53554789  1
  N  N54  1  0.02994491  0.95502570  0.93781052  1
  C  C55  1  0.09049428  0.87088676  0.93997884  1
  C  C56  1  0.10048543  0.79965809  0.83007896  1
  C  C57  1  0.07612571  0.85315147  0.86272067  1
  C  C58  1  0.13381936  0.76169909  0.87505529  1
  C  C59  1  0.09002225  0.77333320  0.74914565  1
  O  O60  1  0.12749832  0.87219699  0.61941796  1
  H  H61  1  0.17333034  0.59469873  0.52796536  1
  H  H62  1  0.09169624  0.72698706  0.61681747  1
  C  C63  1  0.14506156  0.78108420  0.95338371  1
  H  H64  1  0.15505619  0.72304825  0.84934226  1
  O  O65  1  0.05475478  0.80381410  0.70774537  1
  O  O66  1  0.24191700  0.63258217  0.64235811  1
  C  C67  1  0.12605124  0.83701303  0.98588528  1
  C  C68  1  0.21223252  0.50455108  0.78105226  1
  O  O69  1  0.11457240  0.73013420  0.72092454  1
  C  C70  1  0.14223398  0.82496939  0.57575406  1
  C  C71  1  0.07246181  0.93474127  0.98285495  1
  O  O72  1  0.20435049  0.69775585  0.97710267  1
  C  C73  1  0.03246201  0.70596135  0.51615834  1
  H  H74  1  0.11618173  0.69297722  0.53383044  1
  C  C75  1  0.08568228  0.72698536  0.54752433  1
  O  O76  1  0.19446629  0.51558723  0.84374858  1
  C  C77  1  0.21567373  0.68450964  0.50775317  1
  H  H78  1  0.08919168  0.62287486  0.99677129  1
  O  O79  1  0.02366660  0.65455356  0.89612180  1
  H  H80  1  0.23633789  0.53341912  0.97458862  1
  H  H81  1  0.00108537  0.70879599  0.71585825  1
  C  C82  1  0.10631376  0.78925320  0.50975744  1
  C  C83  1  0.00118393  0.68263633  0.94837562  1
  C  C84  1  0.24322230  0.68485818  0.58619517  1
  H  H85  1  0.00199867  0.66367084  0.78604843  1
  C  C86  1  0.18472328  0.74488143  0.99999264  1
  H  H87  1  0.44012790  0.31750013  0.39818398  1
  Cu  Cu88  1  0.40176195  0.15951661  0.34441435  1
  H  H89  1  0.36957295  0.09155304  0.46843178  1
  C  C90  1  0.40994228  0.45387962  0.37510688  1
  C  C91  1  0.39940916  0.32223183  0.42299221  1
  H  H92  1  0.47892227  0.46309117  0.29860085  1
  C  C93  1  0.30376518  0.03415269  0.33720044  1
  C  C94  1  0.37976537  0.47883223  0.43322927  1
  H  H95  1  0.27342998  0.35523051  0.27189370  1
  O  O96  1  0.44270525  0.21090991  0.28260424  1
  O  O97  1  0.43364263  0.46146699  0.11867259  1
  C  C98  1  0.28993807  0.41579208  0.18751791  1
  Cu  Cu99  1  0.39956734  0.38765127  0.15962126  1
  O  O100  1  0.41550443  0.37425981  0.26688482  1
  C  C101  1  0.39744222  0.39078566  0.33269539  1
  O  O102  1  0.36369145  0.10300306  0.40999285  1
  N  N103  1  0.36638748  0.35714102  0.38389376  1
  H  H104  1  0.45957274  0.40147809  0.47355872  1
  C  C105  1  0.45283026  0.20056616  0.20538450  1
  O  O106  1  0.32418535  0.38317068  0.14797710  1
  C  C107  1  0.26696408  0.47367645  0.07115059  1
  C  C108  1  0.45668114  0.48236499  0.34863210  1
  H  H109  1  0.26818405  0.42854129  0.03120622  1
  H  H110  1  0.34626249  0.45324926  0.45508077  1
  C  C111  1  0.34840153  0.03052108  0.39112103  1
  N  N112  1  0.46988043  0.14811947  0.40733366  1
  O  O113  1  0.43224946  0.16065807  0.16687254  1
  C  C114  1  0.26203222  0.45706194  0.16161381  1
  H  H115  1  0.30622740  0.40688640  0.31767439  1
  C  C116  1  0.43191688  0.47715915  0.04471736  1
  O  O117  1  0.27178517  0.40085787  0.28649288  1
  H  H118  1  0.28853562  0.07836907  0.31594871  1
  H  H119  1  0.48403223  0.01086138  0.45485642  1
  C  C120  1  0.48912916  0.24487811  0.15914893  1
  C  C121  1  0.49956756  0.11426263  0.44840268  1
  H  H122  1  0.48991590  0.31242178  0.24646396  1
  H  H123  1  0.49512532  0.17444235  0.06668128  1
  H  H124  1  0.30638818  0.49239791  0.06036057  1
  O  O125  1  0.41959484  0.19212790  0.59897633  1
  H  H126  1  0.42044255  0.44041257  0.55108400  1
  C  C127  1  0.42847768  0.33635881  0.55851697  1
  O  O128  1  0.40538839  0.13732214  0.71820629  1
  O  O129  1  0.49372733  0.42678969  0.57676331  1
  C  C130  1  0.45281679  0.40541114  0.54067038  1
  H  H131  1  0.41589664  0.32993903  0.61784656  1
  O  O132  1  0.49645386  0.30826032  0.69611392  1
  H  H133  1  0.46289767  0.30716596  0.54957167  1
  H  H134  1  0.44537557  0.21048571  0.83336153  1
  C  C135  1  0.41244569  0.16470109  0.65934191  1
  H  H136  1  0.44089109  0.10637754  0.57062348  1
  O  O137  1  0.46169728  0.45322640  0.99665479  1
  C  C138  1  0.46611284  0.06221932  0.56626398  1
  H  H139  1  0.37942963  0.25976365  0.52884993  1
  C  C140  1  0.37996637  0.31223387  0.51011709  1
  H  H141  1  0.34232646  0.33574917  0.52558944  1
  C  C142  1  0.47811120  0.21826931  0.87414041  1
  H  H143  1  0.48556466  0.26545847  0.89598110  1
  H  H144  1  0.44409371  0.03439202  0.68551810  1
  C  C145  1  0.46565626  0.02286782  0.62796497  1
  C  C146  1  0.34126363  0.61671807  0.25306984  1
  H  H147  1  0.38038458  0.54568570  0.14695001  1
  C  C148  1  0.33253406  0.68670919  0.41396020  1
  C  C149  1  0.41597383  0.72879939  0.41746762  1
  C  C150  1  0.46040018  0.79069888  0.15028555  1
  C  C151  1  0.44621291  0.69730430  0.07407839  1
  N  N152  1  0.25467469  0.81670687  0.34757175  1
  H  H153  1  0.30332079  0.91684411  0.39563238  1
  C  C154  1  0.34305425  0.61654427  0.07273400  1
  H  H155  1  0.34129107  0.90875932  0.30727265  1
  C  C156  1  0.47221217  0.53884129  0.38477501  1
  H  H157  1  0.32096704  0.72348959  0.36988477  1
  H  H158  1  0.28518154  0.59806649  0.44382453  1
  H  H159  1  0.45948979  0.60643381  0.47580797  1
  C  C160  1  0.31352953  0.64590159  0.14541961  1
  O  O161  1  0.43862380  0.77436429  0.43284820  1
  O  O162  1  0.39222831  0.68153434  0.40002220  1
  H  H163  1  0.36240849  0.66108443  0.24441653  1
  C  C164  1  0.29808492  0.62757842  0.39151026  1
  H  H165  1  0.42770377  0.79955902  0.02931608  1
  H  H166  1  0.31481759  0.54204484  0.32505430  1
  C  C167  1  0.29931692  0.91754614  0.33431168  1
  C  C168  1  0.33385697  0.58744425  0.33527361  1
  C  C169  1  0.39875442  0.53188548  0.02454337  1
  O  O170  1  0.29682158  0.70313453  0.15200480  1
  C  C171  1  0.37670387  0.90108626  0.16351920  1
  N  N172  1  0.30640471  0.60190917  0.20000266  1
  O  O173  1  0.47753346  0.68461953  0.13506098  1
  C  C174  1  0.37429579  0.56361274  0.08781144  1
  H  H175  1  0.46164141  0.84314541  0.16219764  1
  C  C176  1  0.39737006  0.53373475  0.47354184  1
  C  C177  1  0.48736931  0.75195354  0.18451838  1
  C  C178  1  0.44261217  0.56470205  0.44561632  1
  H  H179  1  0.37254001  0.57922447  0.36695289  1
  C  C180  1  0.42437945  0.76801989  0.08316314  1
  H  H181  1  0.38341862  0.77062313  0.10607911  1
  H  H182  1  0.41316313  0.66142877  0.08337006  1
  O  O183  1  0.36884536  0.85636390  0.20059435  1
  H  H184  1  0.25884499  0.63786875  0.35858028  1
  H  H185  1  0.32479704  0.70601452  0.47365173  1
  O  O186  1  0.37991336  0.94785285  0.12654163  1
  H  H187  1  0.26461657  0.76402017  0.46295615  1
  H  H188  1  0.45856951  0.69661295  0.01370717  1
  C  C189  1  0.26114371  0.86628570  0.30538151  1
  O  O190  1  0.36316825  0.98679859  0.42788656  1
  C  C191  1  0.28284221  0.98378405  0.30584727  1
  H  H192  1  0.25186754  0.98854754  0.26280466  1
  O  O193  1  0.30886928  0.66144939  0.83021791  1
  C  C194  1  0.49131278  0.55766705  0.79707897  1
  C  C195  1  0.36732201  0.55634694  0.53989936  1
  C  C196  1  0.39113492  0.54964994  0.94773003  1
  O  O197  1  0.36864760  0.59019346  0.80167606  1
  C  C198  1  0.33336931  0.63519870  0.99641404  1
  Cu  Cu199  1  0.28274469  0.64381072  0.73028537  1
  Cu  Cu200  1  0.27984676  0.55871941  0.62741671  1
  C  C201  1  0.35748896  0.60104053  0.93299561  1
  O  O202  1  0.38413031  0.60055248  0.58569193  1
  H  H203  1  0.30828923  0.67382438  0.97979654  1
  Cu  Cu204  1  0.37712200  0.60084010  0.69264399  1
  C  C205  1  0.34325362  0.62140086  0.85384337  1
  O  O206  1  0.27537902  0.72557915  0.59541639  1
  O  O207  1  0.32190499  0.53211723  0.55166257  1
  H  H208  1  0.49566338  0.98546353  0.63650929  1
  H  H209  1  0.40781757  0.52266382  0.89854910  1
  O  O210  1  0.48295667  0.85031898  0.93659902  1
  O  O211  1  0.59120532  0.43433358  0.12717666  1
  Cu  Cu212  1  0.64501286  0.48259565  0.15784453  1
  H  H213  1  0.63588642  0.11325835  0.29059733  1
  C  C214  1  0.54282174  0.34117287  0.14587276  1
  C  C215  1  0.54610932  0.25841428  0.05047697  1
  C  C216  1  0.62264767  0.11254934  0.01842071  1
  H  H217  1  0.59187393  0.34568688  0.04237964  1
  O  O218  1  0.55674344  0.42040218  0.24402780  1
  O  O219  1  0.57238588  0.41709544  0.47559035  1
  C  C220  1  0.60367530  0.31361163  0.48997365  1
  H  H221  1  0.63903181  0.06483617  0.03342197  1
  C  C222  1  0.55708324  0.28469088  0.46778591  1
  H  H223  1  0.73260439  0.48832417  0.42094593  1
  H  H224  1  0.67909804  0.25509433  0.13767784  1
  C  C225  1  0.70094944  0.02397475  0.23978533  1
  H  H226  1  0.64273860  0.15252199  0.04861480  1
  C  C227  1  0.55342598  0.21860847  0.46938653  1
  C  C228  1  0.61661999  0.14769901  0.25177956  1
  C  C229  1  0.56422459  0.40126977  0.17599620  1
  H  H230  1  0.67734167  0.00406133  0.18908706  1
  C  C231  1  0.70232220  0.13440361  0.17725285  1
  O  O232  1  0.71010720  0.38570549  0.13266802  1
  C  C233  1  0.50755701  0.22047485  0.08888132  1
  Cu  Cu234  1  0.59996614  0.48804406  0.28993521  1
  C  C235  1  0.61600468  0.25327796  0.22839201  1
  C  C236  1  0.61077952  0.38302884  0.48925954  1
  H  H237  1  0.61804494  0.22366784  0.35095030  1
  H  H238  1  0.58575802  0.12712575  0.21437519  1
  C  C239  1  0.59648600  0.21219290  0.29469882  1
  C  C240  1  0.65328600  0.23116413  0.18044423  1
  C  C241  1  0.56285780  0.31937058  0.07527828  1
  H  H242  1  0.60909785  0.30437643  0.22837004  1
  H  H243  1  0.55249891  0.21411594  0.30507015  1
  C  C244  1  0.71041456  0.08731900  0.24463044  1
  N  N245  1  0.66080782  0.16826969  0.20340044  1
  O  O246  1  0.73128100  0.31241038  0.04804127  1
  Cu  Cu247  1  0.68218820  0.41717729  0.03696495  1
  O  O248  1  0.72261750  0.13383753  0.11177278  1
  C  C249  1  0.50875458  0.18029778  0.44204171  1
  C  C250  1  0.50072241  0.05078975  0.49257798  1
  C  C251  1  0.50688938  0.30148721  0.18708446  1
  O  O252  1  0.73846789  0.02115943  0.03062192  1
  C  C253  1  0.74029328  0.01071323  0.36918839  1
  C  C254  1  0.73741543  0.33631690  0.11597218  1
  H  H255  1  0.52503611  0.31374300  0.45131688  1
  O  O256  1  0.58098307  0.00391112  0.16246629  1
  O  O257  1  0.65788806  0.40386925  0.49074014  1
  C  C258  1  0.59735566  0.18228969  0.49723483  1
  H  H259  1  0.74561817  0.16448983  0.31078718  1
  C  C260  1  0.73509801  0.11506134  0.30908317  1
  H  H261  1  0.64750325  0.29311958  0.65030679  1
  O  O262  1  0.68848662  0.11729412  0.54764401  1
  C  C263  1  0.57280059  0.23633202  0.97833921  1
  N  N264  1  0.55843329  0.22391204  0.70005828  1
  C  C265  1  0.53360166  0.17940341  0.66304569  1
  Cu  Cu266  1  0.54546631  0.48043183  0.54599316  1
  H  H267  1  0.62851342  0.09560869  0.75184235  1
  C  C268  1  0.68153414  0.35591136  0.73993723  1
  O  O269  1  0.60914364  0.26727588  0.94574856  1
  C  C270  1  0.54437703  0.28541326  0.69956482  1
  H  H271  1  0.55985311  0.08491962  0.93797584  1
  C  C272  1  0.62307568  0.38858170  0.83803788  1
  H  H273  1  0.71500565  0.05932412  0.81196639  1
  C  C274  1  0.64429634  0.21129817  0.51698295  1
  C  C275  1  0.69018086  0.17565406  0.54614951  1
  C  C276  1  0.59009979  0.32057519  0.73856118  1
  H  H277  1  0.71173975  0.40893022  0.83662522  1
  H  H278  1  0.55917074  0.07417695  0.64492259  1
  H  H279  1  0.57563971  0.20469388  0.82141567  1
  C  C280  1  0.67508762  0.38570113  0.81134575  1
  C  C281  1  0.64695691  0.27773173  0.51366687  1
  C  C282  1  0.64081349  0.31954417  0.70455209  1
  C  C283  1  0.57933026  0.35808057  0.80495193  1
  C  C284  1  0.61635152  0.42334444  0.91294459  1
  C  C285  1  0.59729676  0.19865872  0.76456740  1
  C  C286  1  0.59925681  0.13124984  0.73650822  1
  H  H287  1  0.63332236  0.22626682  0.76197039  1
  O  O288  1  0.56974436  0.42427126  0.93936219  1
  C  C289  1  0.51053603  0.17221204  0.90259084  1
  Cu  Cu290  1  0.69391452  0.43536072  0.58117135  1
  C  C291  1  0.56388128  0.12213983  0.67671412  1
  O  O292  1  0.65311074  0.45303911  0.94688331  1
  O  O293  1  0.70448506  0.04444249  0.67311380  1
  N  N294  1  0.55482458  0.17955023  0.95026984  1
  O  O295  1  0.73245589  0.20101273  0.57345243  1
  H  H296  1  0.53765237  0.36350161  0.83174397  1
  C  C297  1  0.73289720  0.36478987  0.69305861  1
  Cu  Cu298  1  0.74690870  0.05856807  0.58202538  1
  H  H299  1  0.68245053  0.30418806  0.53258374  1
  C  C300  1  0.72149925  0.03764584  0.96087770  1
  C  C301  1  0.69898901  0.01073043  0.82385741  1
  O  O302  1  0.72895082  0.36082586  0.60975438  1
  H  H303  1  0.51256896  0.12062177  0.88548582  1
  C  C304  1  0.58079139  0.12070340  0.96953650  1
  H  H305  1  0.50653320  0.19499692  0.61811727  1
  Cu  Cu306  1  0.66938890  0.29716659  0.99469305  1
  H  H307  1  0.50436120  0.34945458  0.66628602  1
  O  O308  1  0.73047952  0.08999418  0.93834516  1
  Cu  Cu309  1  0.52712602  0.48278518  0.99369932  1
  H  H310  1  0.54222932  0.03861713  0.51078993  1
  H  H311  1  0.59245141  0.13065273  0.50409554  1
  O  O312  1  0.59354272  0.72329253  0.33700230  1
  C  C313  1  0.63957125  0.70566173  0.32207916  1
  O  O314  1  0.72272655  0.88174898  0.35065823  1
  C  C315  1  0.60514763  0.56970415  0.03931364  1
  C  C316  1  0.66958677  0.66452307  0.37895090  1
  C  C317  1  0.74943185  0.64062736  0.43242298  1
  O  O318  1  0.52669295  0.62933490  0.37924326  1
  C  C319  1  0.69777338  0.61540132  0.03178162  1
  C  C320  1  0.58662568  0.99304804  0.09554001  1
  O  O321  1  0.68594146  0.89432611  0.23223648  1
  C  C322  1  0.51588199  0.57566121  0.35096669  1
  H  H323  1  0.56529499  0.89517644  0.01977443  1
  O  O324  1  0.66477259  0.72426702  0.26287992  1
  C  C325  1  0.72392387  0.66878236  0.36868573  1
  C  C326  1  0.71546971  0.98405459  0.30291188  1
  O  O327  1  0.61403510  0.55427305  0.11056984  1
  H  H328  1  0.65420010  0.74249198  0.10611906  1
  O  O329  1  0.59256629  0.98357086  0.02901922  1
  O  O330  1  0.69735480  0.53182110  0.19675076  1
  O  O331  1  0.73964698  0.78437469  0.16604789  1
  C  C332  1  0.70678399  0.91643497  0.29609763  1
  Cu  Cu333  1  0.68119485  0.80698485  0.23862542  1
  C  C334  1  0.58540168  0.80805604  0.08977604  1
  C  C335  1  0.64125752  0.63047098  0.43472546  1
  H  H336  1  0.59756090  0.62911545  0.43595763  1
  H  H337  1  0.70722873  0.59358879  0.08935058  1
  Cu  Cu338  1  0.52560327  0.69409471  0.30219060  1
  H  H339  1  0.60288785  0.70656254  0.03859549  1
  O  O340  1  0.51864892  0.75951176  0.24326506  1
  H  H341  1  0.60655537  0.84089057  0.13224486  1
  C  C342  1  0.62374903  0.75206284  0.06056535  1
  O  O343  1  0.56127346  0.55792510  0.00932479  1
  O  O344  1  0.54119060  0.54525871  0.29768758  1
  H  H345  1  0.55034171  0.78991304  0.12290927  1
  C  C346  1  0.70504330  0.51860413  0.26958532  1
  O  O347  1  0.66743795  0.50841122  0.31603539  1
  H  H348  1  0.74293329  0.69084927  0.31841477  1
  C  C349  1  0.67132898  0.59272755  0.48474177  1
  O  O350  1  0.56559502  0.86858634  0.49677848  1
  C  C351  1  0.72588116  0.60015823  0.48952364  1
  H  H352  1  0.74488782  0.79702332  0.01591665  1
  C  C353  1  0.56485160  0.84187948  0.01366723  1
  H  H354  1  0.72716883  0.69318976  0.57178809  1
  C  C355  1  0.72084396  0.67003940  0.91064911  1
  C  C356  1  0.69353208  0.72713560  0.68094626  1
  O  O357  1  0.66679973  0.95363227  0.63245639  1
  O  O358  1  0.60758615  0.69582108  0.77591546  1
  H  H359  1  0.64851794  0.73593577  0.67222085  1
  C  C360  1  0.72686466  0.78308907  0.66245604  1
  O  O361  1  0.70024000  0.83253346  0.65346917  1
  Cu  Cu362  1  0.56681319  0.73523157  0.85183529  1
  C  C363  1  0.71578528  0.67256298  0.62867136  1
  C  C364  1  0.67604838  0.93427860  0.92526273  1
  Cu  Cu365  1  0.70613010  0.89837373  0.57842324  1
  C  C366  1  0.70027147  0.99125508  0.90205929  1
  O  O367  1  0.60165421  0.80683110  0.83012685  1
  C  C368  1  0.65639631  0.69081147  0.79562431  1
  C  C369  1  0.67032199  0.66234179  0.87832650  1
  H  H370  1  0.67356532  0.76325394  0.94401667  1
  H  H371  1  0.59576962  0.61711096  0.89957948  1
  O  O372  1  0.73430245  0.80421663  0.87361839  1
  C  C373  1  0.65526290  0.89716094  0.86513934  1
  C  C374  1  0.65351443  0.91434531  0.78514396  1
  H  H375  1  0.68246556  0.63467867  0.62326122  1
  C  C376  1  0.62573659  0.83590100  0.88496541  1
  H  H377  1  0.63358795  0.88218186  0.73944357  1
  C  C378  1  0.68286248  0.99088586  0.68417401  1
  C  C379  1  0.63558524  0.62803125  0.92313620  1
  C  C380  1  0.51822113  0.81704788  0.95657638  1
  O  O381  1  0.59389334  0.54389916  0.52488849  1
  N  N382  1  0.61287567  0.83267553  0.96488865  1
  C  C383  1  0.64286954  0.54976634  0.53534562  1
  N  N384  1  0.69614263  0.70771880  0.75891828  1
  H  H385  1  0.72396560  0.79806888  0.81528718  1
  C  C386  1  0.64378300  0.78537177  0.98730265  1
  C  C387  1  0.67806605  0.97006752  0.76576424  1
  C  C388  1  0.73469616  0.64782585  0.98504885  1
  O  O389  1  0.66613316  0.51729931  0.58678285  1
  O  O390  1  0.52255061  0.76067428  0.93207827  1
  H  H391  1  0.67493375  0.91425515  0.98775081  1
  O  O392  1  0.52206569  0.59060831  0.78764824  1
  C  C393  1  0.57459949  0.91046613  0.52872049  1
  C  C394  1  0.64848313  0.60221649  0.99793485  1
  H  H395  1  0.75404086  0.37739187  0.26366815  1
  C  C396  1  0.84379577  0.15017060  0.19054515  1
  C  C397  1  0.82138318  0.21404467  0.21466551  1
  O  O398  1  0.83501123  0.12816158  0.12430930  1
  C  C399  1  0.77130238  0.30653658  0.17496198  1
  C  C400  1  0.90605024  0.08322398  0.24007551  1
  N  N401  1  0.87067004  0.12886641  0.25446750  1
  C  C402  1  0.94783222  0.06786939  0.00418496  1
  H  H403  1  0.93967650  0.09304389  0.06182352  1
  O  O404  1  0.97512041  0.10860862  0.22846663  1
  C  C405  1  0.82784985  0.24075283  0.28838825  1
  C  C406  1  0.78023285  0.10158127  0.44098241  1
  Cu  Cu407  1  0.78012323  0.07717800  0.08101426  1
  C  C408  1  0.88489279  0.36255675  0.18262485  1
  C  C409  1  0.80695428  0.31681872  0.39019888  1
  H  H410  1  0.85153345  0.21444751  0.32724139  1
  O  O411  1  0.83067677  0.27700364  0.43684589  1
  H  H412  1  0.85008542  0.33195560  0.16526280  1
  H  H413  1  0.97867893  0.48743892  0.15023204  1
  H  H414  1  0.91450971  0.29550545  0.26334339  1
  O  O415  1  0.78591431  0.36564529  0.41693369  1
  O  O416  1  0.78983738  0.16036929  0.43969068  1
  C  C417  1  0.80323857  0.29916914  0.30789160  1
  H  H418  1  0.89030836  0.40703128  0.15219940  1
  H  H419  1  0.94503192  0.37651689  0.26402592  1
  H  H420  1  0.88853475  0.05341184  0.19001099  1
  H  H421  1  0.78808314  0.22745271  0.09694644  1
  H  H422  1  0.91922523  0.05647894  0.29295591  1
  C  C423  1  0.77440336  0.33240359  0.25048348  1
  C  C424  1  0.79346372  0.24712926  0.15689898  1
  C  C425  1  0.91769412  0.34408823  0.24094598  1
  H  H426  1  0.97734578  0.02854038  0.01911957  1
  C  C427  1  0.75049256  0.07543874  0.37255954  1
  C  C428  1  0.83245673  0.48926539  0.48754757  1
  C  C429  1  0.76620140  0.49636716  0.37965050  1
  C  C430  1  0.81930889  0.49673917  0.40282481  1
  H  H431  1  0.90210713  0.48945968  0.37052142  1
  O  O432  1  0.79138069  0.06627376  0.49743142  1
  H  H433  1  0.94903773  0.14017836  0.91499767  1
  O  O434  1  0.77206501  0.37954430  0.72593107  1
  O  O435  1  0.79624413  0.46899069  0.53218055  1
  C  C436  1  0.97783319  0.10518112  0.93747831  1
  H  H437  1  0.95831623  0.02274458  0.87253033  1
  Cu  Cu438  1  0.78460449  0.23179833  0.50681462  1
  Cu  Cu439  1  0.77925007  0.38158330  0.52876064  1
  O  O440  1  0.84864158  0.20297669  0.91066844  1
  C  C441  1  0.99463846  0.05067821  0.87914287  1
  C  C442  1  0.83953493  0.19150705  0.84608686  1
  O  O443  1  0.83012777  0.17885098  0.77972265  1
  O  O444  1  0.90163925  0.02509380  0.98439460  1
  H  H445  1  0.93931608  0.88327216  0.00532020  1
  O  O446  1  0.77148937  0.82340634  0.45687900  1
  C  C447  1  0.95080130  0.56588844  0.31552206  1
  O  O448  1  0.88946612  0.50839800  0.14292728  1
  H  H449  1  0.81693432  0.61494684  0.30309619  1
  H  H450  1  0.88547060  0.61258273  0.19266685  1
  H  H451  1  0.93124418  0.67756177  0.17844095  1
  C  C452  1  0.85132567  0.70310995  0.23945752  1
  N  N453  1  0.82982701  0.68722298  0.37697075  1
  C  C454  1  0.83166562  0.66130619  0.30602576  1
  C  C455  1  0.81102691  0.64733161  0.43172178  1
  C  C456  1  0.77682514  0.83336535  0.01744602  1
  H  H457  1  0.84842583  0.75241325  0.47505745  1
  O  O458  1  0.79885771  0.83897025  0.23293554  1
  O  O459  1  0.95628282  0.78539612  0.21722794  1
  C  C460  1  0.83297219  0.89540164  0.09661742  1
  C  C461  1  0.85108170  0.51250118  0.27277942  1
  C  C462  1  0.99938842  0.76484779  0.22316546  1
  C  C463  1  0.88828419  0.66364861  0.17802265  1
  O  O464  1  0.97435687  0.54464050  0.45722290  1
  C  C465  1  0.80080743  0.52036133  0.24519126  1
  H  H466  1  0.87095234  0.74584918  0.25655571  1
  H  H467  1  0.91471952  0.59105191  0.33531975  1
  H  H468  1  0.84974433  0.90737429  0.15508730  1
  C  C469  1  0.79697712  0.84734869  0.09263913  1
  C  C470  1  0.89130370  0.98272815  0.03904676  1
  H  H471  1  0.76067520  0.98281948  0.41394803  1
  C  C472  1  0.98289025  0.52535343  0.38594635  1
  C  C473  1  0.85280832  0.92970102  0.03078795  1
  H  H474  1  0.89060599  0.66161411  0.04498378  1
  C  C475  1  0.86321491  0.67501293  0.09608263  1
  H  H476  1  0.81621812  0.72067647  0.20946407  1
  C  C477  1  0.75919938  0.51203819  0.29992240  1
  H  H478  1  0.85822575  0.72651583  0.08114440  1
  O  O479  1  0.93637439  0.66926529  0.47219752  1
  H  H480  1  0.95005456  0.90950961  0.18417090  1
  O  O481  1  0.81099399  0.65013296  0.08596200  1
  C  C482  1  0.78048612  0.81884200  0.16608750  1
  N  N483  1  0.94219602  0.52516841  0.25153412  1
  C  C484  1  0.95350320  0.87820816  0.06482310  1
  O  O485  1  0.98830646  0.89155365  0.38843184  1
  Cu  Cu486  1  0.77860879  0.82993768  0.34154479  1
  Cu  Cu487  1  0.90634139  0.58701624  0.48537114  1
  N  N488  1  0.91263564  0.97780067  0.10947897  1
  C  C489  1  0.93953441  0.92022102  0.12239589  1
  H  H490  1  0.95433916  0.74023056  0.07441514  1
  C  C491  1  0.89709638  0.51110361  0.21193474  1
  C  C492  1  0.86323001  0.50131666  0.35139318  1
  H  H493  1  0.98071404  0.84171056  0.07599420  1
  C  C494  1  0.99447928  0.61269434  0.28401489  1
  H  H495  1  0.98316049  0.60719211  0.15032341  1
  H  H496  1  0.98066807  0.66065164  0.27739071  1
  C  C497  1  0.99251777  0.71754232  0.08798927  1
  H  H498  1  0.79526480  0.53661770  0.18554153  1
  C  C499  1  0.99003546  0.51374476  0.20618068  1
  O  O500  1  0.83688697  0.62501718  0.49026270  1
  C  C501  1  0.79019036  0.66267228  0.01000663  1
  C  C502  1  0.94902335  0.91875141  0.66859393  1
  O  O503  1  0.81775116  0.68462819  0.95877327  1
  C  C504  1  0.92012278  0.76931975  0.54849068  1
  H  H505  1  0.94976439  0.70349195  0.87544282  1
  H  H506  1  0.75408054  0.69172110  0.87335098  1
  H  H507  1  0.75123157  0.57102760  0.52823094  1
  H  H508  1  0.84543897  0.94101391  0.90461521  1
  H  H509  1  0.85102620  0.92701522  0.61846372  1
  O  O510  1  0.87773235  0.50277289  0.51291699  1
  C  C511  1  0.91988113  0.86946032  0.61954876  1
  O  O512  1  0.97872416  0.68396037  0.74748861  1
  C  C513  1  0.80756951  0.70912995  0.65109557  1
  H  H514  1  0.77137487  0.62903889  0.71973092  1
  C  C515  1  0.94492025  0.81308070  0.59691437  1
  C  C516  1  0.86989000  0.88482797  0.59316308  1
  C  C517  1  0.84414899  0.84112061  0.54094498  1
  C  C518  1  0.86839531  0.78473094  0.51857709  1
  O  O519  1  0.92589559  0.96696297  0.67905646  1
  C  C520  1  0.95236898  0.71141784  0.52038694  1
  C  C521  1  0.79705822  0.86439450  0.94983055  1
  O  O522  1  0.78849483  0.87435081  0.81513425  1
  O  O523  1  0.76850517  0.90797320  0.53026036  1
  H  H524  1  0.78764608  0.61316562  0.61742542  1
  C  C525  1  0.77718618  0.84564601  0.87195876  1
  H  H526  1  0.83434552  0.70399944  0.59782752  1
  H  H527  1  0.83252743  0.71280882  0.70410822  1
  O  O528  1  0.95480388  0.72147574  0.92763989  1
  C  C529  1  0.83361939  0.91274703  0.95686548  1
  C  C530  1  0.77198247  0.65094332  0.65864289  1
  H  H531  1  0.98440126  0.80002609  0.61905198  1
  C  C532  1  0.79288325  0.85979931  0.50946664  1
  O  O533  1  0.77600647  0.77725685  0.65033577  1
  N  N534  1  0.99574699  0.71119034  0.56530903  1
  O  O535  1  0.99425770  0.90669249  0.69975295  1
