# generated using pymatgen
data_Cu2H11C23O9
_symmetry_space_group_name_H-M   'P 1'
_cell_length_a   21.81630057
_cell_length_b   17.84122596
_cell_length_c   20.27120261
_cell_angle_alpha   90.00000000
_cell_angle_beta   90.00000000
_cell_angle_gamma   90.00000000
_symmetry_Int_Tables_number   1
_chemical_formula_structural   Cu2H11C23O9
_chemical_formula_sum   'Cu16 H88 C184 O72'
_cell_volume   7890.15103194
_cell_formula_units_Z   8
loop_
 _symmetry_equiv_pos_site_id
 _symmetry_equiv_pos_as_xyz
  1  'x, y, z'
loop_
 _atom_site_type_symbol
 _atom_site_label
 _atom_site_symmetry_multiplicity
 _atom_site_fract_x
 _atom_site_fract_y
 _atom_site_fract_z
 _atom_site_occupancy
  C  C0  1  0.34268921  0.17305847  0.15275891  1
  Cu  Cu1  1  0.09687438  0.42038698  0.04557869  1
  C  C2  1  0.25804116  0.40053605  0.11970555  1
  O  O3  1  0.13088457  0.41246707  0.12848994  1
  C  C4  1  0.15532678  0.34797097  0.14976729  1
  C  C5  1  0.36678005  0.44030618  0.09005352  1
  C  C6  1  0.34829378  0.30818515  0.11325984  1
  O  O7  1  0.12592635  0.29798054  0.17180335  1
  C  C8  1  0.22369275  0.33954919  0.13945180  1
  C  C9  1  0.32062688  0.37948988  0.10907585  1
  C  C10  1  0.24822767  0.26675600  0.15513057  1
  H  H11  1  0.24703663  0.45960037  0.11570546  1
  H  H12  1  0.39441887  0.29618334  0.09804899  1
  O  O13  1  0.31179951  0.11846860  0.17101222  1
  C  C14  1  0.30999221  0.25304730  0.14056809  1
  C  C15  1  0.40296738  0.47457227  0.13908856  1
  O  O16  1  0.02286374  0.45409277  0.08057095  1
  H  H17  1  0.21907431  0.21802153  0.17664372  1
  C  C18  1  0.36803144  0.45223263  0.02112028  1
  O  O19  1  0.40209990  0.45961374  0.20365922  1
  O  O20  1  0.40051386  0.16984623  0.14458257  1
  H  H21  1  0.36441799  0.34576996  0.21171006  1
  H  H22  1  0.31317241  0.41703232  0.21645652  1
  C  C23  1  0.36168799  0.40252926  0.23026602  1
  O  O24  1  0.07728999  0.43200667  0.34190806  1
  C  C25  1  0.20867685  0.37639315  0.44086759  1
  H  H26  1  0.17116795  0.40783264  0.34126590  1
  C  C27  1  0.12846698  0.28815102  0.48619801  1
  O  O28  1  0.47050489  0.22049527  0.45989893  1
  C  C29  1  0.07058587  0.44914446  0.40550385  1
  H  H30  1  0.12853840  0.36997517  0.26894683  1
  C  C31  1  0.12833255  0.38157856  0.32501078  1
  C  C32  1  0.10206008  0.42329961  0.46219413  1
  O  O33  1  0.33375451  0.38073479  0.39454383  1
  H  H34  1  0.22054930  0.43249795  0.42385268  1
  C  C35  1  0.14812076  0.35819748  0.46121147  1
  C  C36  1  0.25049181  0.31796563  0.44801299  1
  C  C37  1  0.31785915  0.33191577  0.43024696  1
  H  H38  1  0.36095612  0.39784917  0.28409832  1
  H  H39  1  0.12450137  0.32810342  0.34989324  1
  O  O40  1  0.35699236  0.28193302  0.45131903  1
  C  C41  1  0.23345600  0.24998749  0.47342885  1
  H  H42  1  0.27209406  0.21015239  0.48202532  1
  H  H43  1  0.07933392  0.28029966  0.49984279  1
  C  C44  1  0.17166579  0.23196084  0.49198465  1
  C  C45  1  0.41055275  0.48898386  0.69798326  1
  C  C46  1  0.38600051  0.44634334  0.64621580  1
  Cu  Cu47  1  0.05066501  0.15448433  0.60287694  1
  C  C48  1  0.42636252  0.41846480  0.59224489  1
  O  O49  1  0.40329460  0.36937317  0.55078790  1
  H  H50  1  0.30728404  0.38256798  0.60203843  1
  O  O51  1  0.20112873  0.11774059  0.52781123  1
  H  H52  1  0.05158878  0.39440129  0.64848775  1
  C  C53  1  0.03543848  0.45090165  0.66373915  1
  O  O54  1  0.12452576  0.05690718  0.68592305  1
  C  C55  1  0.17818297  0.07054260  0.70282639  1
  H  H56  1  0.12786382  0.41522864  0.56860004  1
  Cu  Cu57  1  0.43407288  0.29108447  0.50010427  1
  Cu  Cu58  1  0.21910387  0.03711186  0.57529117  1
  O  O59  1  0.22080076  0.08074427  0.66208977  1
  C  C60  1  0.15581200  0.16048806  0.52033628  1
  C  C61  1  0.09964071  0.44351754  0.52972937  1
  C  C62  1  0.32586454  0.41590514  0.64343123  1
  O  O63  1  0.19922931  0.36887208  0.65809447  1
  O  O64  1  0.10160505  0.13626352  0.53381352  1
  C  C65  1  0.01662416  0.32103468  0.73195801  1
  O  O66  1  0.48037658  0.42991363  0.59192072  1
  C  C67  1  0.05231667  0.49506181  0.54789043  1
  C  C68  1  0.28821129  0.43573992  0.69530233  1
  C  C69  1  0.01951758  0.46642748  0.72927430  1
  H  H70  1  0.14167610  0.45172503  0.71139871  1
  O  O71  1  0.49075637  0.13838751  0.53984091  1
  O  O72  1  0.49747284  0.01071393  0.74215772  1
  C  C73  1  0.01363515  0.18522606  0.73410233  1
  C  C74  1  0.22037205  0.41521550  0.69250756  1
  O  O75  1  0.00423588  0.18421667  0.67233233  1
  H  H76  1  0.00590144  0.31504544  0.67966544  1
  O  O77  1  0.18220792  0.45815638  0.73268722  1
  C  C78  1  0.30628075  0.48263217  0.74544929  1
  C  C79  1  0.04209571  0.39333340  0.83166939  1
  C  C80  1  0.15048482  0.08793733  0.88494670  1
  C  C81  1  0.19264572  0.08316475  0.77361336  1
  H  H82  1  0.21046300  0.14312324  0.95818849  1
  C  C83  1  0.04923817  0.32826715  0.86691389  1
  H  H84  1  0.04393165  0.44582931  0.85878033  1
  C  C85  1  0.06860296  0.33697760  0.93781126  1
  C  C86  1  0.31522207  0.14840184  0.89324367  1
  O  O87  1  0.06855222  0.40671039  0.96393788  1
  O  O88  1  0.08554441  0.28547549  0.97103216  1
  H  H89  1  0.04703037  0.20825029  0.86212300  1
  C  C90  1  0.14668271  0.06622446  0.81897318  1
  O  O91  1  0.31592788  0.16822003  0.94959188  1
  C  C92  1  0.05166521  0.12097390  0.94681681  1
  H  H93  1  0.34625720  0.46410707  0.87398786  1
  C  C94  1  0.09048303  0.06744225  0.92251763  1
  H  H95  1  0.29024686  0.11959867  0.76119439  1
  C  C96  1  0.03961740  0.25964391  0.83493853  1
  H  H97  1  0.06745558  0.17703746  0.95448117  1
  C  C98  1  0.25447399  0.12693061  0.86214439  1
  O  O99  1  0.36785493  0.13511447  0.86052592  1
  C  C100  1  0.25037192  0.10950056  0.79574530  1
  C  C101  1  0.20328877  0.12267163  0.90584702  1
  Cu  Cu102  1  0.39584562  0.03677491  0.86330355  1
  H  H103  1  0.10278649  0.04214005  0.80555013  1
  H  H104  1  0.33517161  0.42388591  0.98789426  1
  C  C105  1  0.02429432  0.39023760  0.76338939  1
  O  O106  1  0.40098107  0.02717376  0.77011801  1
  O  O107  1  0.00776671  0.12490691  0.76641888  1
  C  C108  1  0.02624228  0.25572909  0.76707819  1
  H  H109  1  0.27585429  0.49407596  0.78713895  1
  C  C110  1  0.44456915  0.52786117  0.11088281  1
  O  O111  1  0.07748166  0.64998132  0.02557778  1
  Cu  Cu112  1  0.03928981  0.62883549  0.10771278  1
  O  O113  1  0.00838496  0.61282676  0.19398071  1
  H  H114  1  0.47838638  0.59129807  0.02831483  1
  H  H115  1  0.48353615  0.68618168  0.11082248  1
  C  C116  1  0.44534077  0.54562613  0.04457790  1
  C  C117  1  0.48997805  0.57151955  0.15460576  1
  H  H118  1  0.08923884  0.86521946  0.00552620  1
  O  O119  1  0.14080001  0.74622924  0.02474084  1
  C  C120  1  0.09293639  0.72109692  0.00930319  1
  H  H121  1  0.03660581  0.55786517  0.29740697  1
  C  C122  1  0.01741362  0.52476932  0.49378886  1
  C  C123  1  0.02396229  0.50104677  0.42897160  1
  H  H124  1  0.45929044  0.50978650  0.69912613  1
  C  C125  1  0.46690298  0.91107664  0.64331033  1
  C  C126  1  0.42204522  0.95046869  0.67909463  1
  O  O127  1  0.26546899  0.85503969  0.54068012  1
  H  H128  1  0.32466153  0.97874512  0.68105825  1
  C  C129  1  0.27916095  0.90069672  0.58251878  1
  H  H130  1  0.49466151  0.60060713  0.60536195  1
  O  O131  1  0.45831428  0.70804261  0.57089845  1
  C  C132  1  0.44953769  0.86427384  0.59073053  1
  C  C133  1  0.03041520  0.51137456  0.61862347  1
  C  C134  1  0.34519450  0.90244897  0.60430381  1
  C  C135  1  0.45893788  0.61903449  0.56733865  1
  H  H136  1  0.00865479  0.85797035  0.58918551  1
  H  H137  1  0.04180295  0.73183062  0.70491885  1
  Cu  Cu138  1  0.08061138  0.97062633  0.69240967  1
  C  C139  1  0.36143817  0.94718463  0.65788274  1
  C  C140  1  0.38826996  0.85776752  0.57061218  1
  H  H141  1  0.37616747  0.82505146  0.52691894  1
  H  H142  1  0.41401871  0.59280302  0.57981568  1
  O  O143  1  0.24144970  0.94702694  0.60824010  1
  O  O144  1  0.04582631  0.87507497  0.70048326  1
  O  O145  1  0.43055883  0.64349608  0.73886006  1
  O  O146  1  0.05019482  0.98078517  0.60399846  1
  H  H147  1  0.47772189  0.72723378  0.68017730  1
  H  H148  1  0.00479527  0.63552873  0.60454408  1
  H  H149  1  0.47062172  0.59375267  0.51971427  1
  C  C150  1  0.00863575  0.58395772  0.63891187  1
  C  C151  1  0.47404632  0.70285544  0.73110488  1
  C  C152  1  0.44040208  0.99537487  0.73463230  1
  C  C153  1  0.36745822  0.50917044  0.74686099  1
  C  C154  1  0.46538581  0.78639546  0.87302211  1
  H  H155  1  0.14532382  0.81928823  0.90655262  1
  O  O156  1  0.12096319  0.93756943  0.89663857  1
  H  H157  1  0.41495052  0.79522151  0.87152581  1
  C  C158  1  0.06333805  0.83947633  0.96227450  1
  H  H159  1  0.07405001  0.84882226  0.86148700  1
  C  C160  1  0.10430684  0.85548015  0.90513311  1
  C  C161  1  0.02193050  0.96814252  0.94372642  1
  C  C162  1  0.42313584  0.61450763  0.80021382  1
  O  O163  1  0.42530692  0.93838092  0.87109716  1
  C  C164  1  0.44531890  0.64328093  0.86191544  1
  C  C165  1  0.43064739  0.61719877  0.92541079  1
  C  C166  1  0.39085828  0.54696908  0.81041159  1
  H  H167  1  0.44570583  0.64892515  0.96594925  1
  C  C168  1  0.08127320  0.98746264  0.91873801  1
  C  C169  1  0.48178418  0.92470610  0.87831185  1
  C  C170  1  0.00737030  0.88682609  0.94549685  1
  C  C171  1  0.40504344  0.54217540  0.93033732  1
  C  C172  1  0.48844935  0.71401110  0.87277937  1
  C  C173  1  0.37792785  0.51399388  0.87194862  1
  C  C174  1  0.04202627  0.76387124  0.97627026  1
  H  H175  1  0.45421551  0.74643364  0.76882766  1
  C  C176  1  0.40853785  0.50787811  0.99888911  1
  H  H177  1  0.50514670  0.46725860  0.21011878  1
  H  H178  1  0.69396154  0.20728687  0.02105051  1
  H  H179  1  0.96559098  0.35097814  0.03876813  1
  C  C180  1  0.74834072  0.05287431  0.02776738  1
  H  H181  1  0.75385748  0.20584405  0.08338945  1
  C  C182  1  0.72589162  0.24351032  0.04894740  1
  H  H183  1  0.77981500  0.02718812  0.06408011  1
  C  C184  1  0.68846250  0.02681585  0.02358710  1
  C  C185  1  0.93275851  0.38475191  0.01279211  1
  C  C186  1  0.93245191  0.46232343  0.01998168  1
  H  H187  1  0.69650373  0.28288395  0.07636033  1
  O  O188  1  0.77287000  0.28220537  0.01536337  1
  C  C189  1  0.98147953  0.49635936  0.05559813  1
  C  C190  1  0.68168282  0.13909481  0.40695354  1
  O  O191  1  0.57876473  0.44435772  0.30457445  1
  H  H192  1  0.55140090  0.23645613  0.38154800  1
  O  O193  1  0.60957436  0.45372334  0.43365207  1
  O  O194  1  0.63735930  0.30277331  0.30846574  1
  C  C195  1  0.58367146  0.19658199  0.40485972  1
  C  C196  1  0.56617675  0.15665893  0.46018710  1
  O  O197  1  0.72025808  0.23579300  0.30824828  1
  Cu  Cu198  1  0.62095148  0.37918863  0.37056738  1
  C  C199  1  0.66330462  0.09246236  0.45895675  1
  C  C200  1  0.67005443  0.24715732  0.32865431  1
  C  C201  1  0.64413663  0.19306385  0.38204568  1
  H  H202  1  0.72834547  0.13024062  0.38505136  1
  H  H203  1  0.77555707  0.16184268  0.44523786  1
  C  C204  1  0.69457319  0.02535965  0.49077424  1
  C  C205  1  0.77978817  0.14839679  0.49912768  1
  Cu  Cu206  1  0.68219183  0.49315075  0.39309569  1
  C  C207  1  0.61304371  0.44224904  0.49872424  1
  C  C208  1  0.50395872  0.16992041  0.49074067  1
  C  C209  1  0.60613050  0.10517822  0.48860668  1
  H  H210  1  0.87532163  0.03769112  0.56359013  1
  H  H211  1  0.64452802  0.43862954  0.61024984  1
  O  O212  1  0.62445851  0.38131882  0.51904689  1
  H  H213  1  0.59279832  0.07337691  0.53157534  1
  C  C214  1  0.63011051  0.49727040  0.60364870  1
  O  O215  1  0.67896504  0.47853798  0.73144520  1
  O  O216  1  0.99395065  0.07871077  0.58287179  1
  C  C217  1  0.75734352  0.01754844  0.51077138  1
  C  C218  1  0.99937061  0.00831293  0.58643807  1
  O  O219  1  0.79894651  0.07243030  0.51138089  1
  H  H220  1  0.81418330  0.19797256  0.51343515  1
  H  H221  1  0.73349155  0.15898954  0.52254969  1
  C  C222  1  0.61840228  0.14728825  0.88731963  1
  C  C223  1  0.65011638  0.05647184  0.97516443  1
  Cu  Cu224  1  0.53316550  0.06116366  0.81808438  1
  O  O225  1  0.74805259  0.47617290  0.89795813  1
  C  C226  1  0.97731517  0.02031523  0.96160878  1
  C  C227  1  0.82291255  0.15697244  0.98932378  1
  C  C228  1  0.83571622  0.39883513  0.95095199  1
  C  C229  1  0.93243182  0.14772841  0.97172559  1
  C  C230  1  0.72626511  0.14636883  0.93879529  1
  H  H231  1  0.79954312  0.37314854  0.92271642  1
  C  C232  1  0.84099000  0.47602298  0.95428354  1
  O  O233  1  0.56312662  0.11488926  0.88665973  1
  C  C234  1  0.98985830  0.09916039  0.96062820  1
  H  H235  1  0.74010458  0.19545079  0.91024517  1
  O  O236  1  0.62743186  0.20032780  0.85368891  1
  C  C237  1  0.66630327  0.11668155  0.93334228  1
  C  C238  1  0.93156030  0.22645961  0.97168209  1
  C  C239  1  0.88216679  0.35270757  0.97748009  1
  H  H240  1  0.97332777  0.26115358  0.96536244  1
  C  C241  1  0.87335890  0.11082125  0.97944581  1
  H  H242  1  0.60242767  0.03522721  0.96892231  1
  C  C243  1  0.87837289  0.26878232  0.98084341  1
  H  H244  1  0.87059334  0.05079421  0.96833049  1
  Cu  Cu245  1  0.71717818  0.47973774  0.81657033  1
  C  C246  1  0.76151984  0.11578354  0.98796574  1
  C  C247  1  0.82187582  0.23582829  0.99916411  1
  Cu  Cu248  1  0.98244178  0.02754897  0.75158889  1
  H  H249  1  0.93160386  0.00368276  0.97839819  1
  O  O250  1  0.68675403  0.94022300  0.11316828  1
  Cu  Cu251  1  0.57132400  0.87748194  0.09098863  1
  O  O252  1  0.90791493  0.62492260  0.17451409  1
  C  C253  1  0.94851676  0.60498903  0.20764250  1
  O  O254  1  0.60359572  0.95634835  0.05227071  1
  C  C255  1  0.55322202  0.67198137  0.18849566  1
  O  O256  1  0.61418913  0.78323865  0.20086138  1
  C  C257  1  0.51653241  0.52608652  0.20481507  1
  C  C258  1  0.57204847  0.75327917  0.17465189  1
  C  C259  1  0.66173397  0.96869797  0.06716467  1
  O  O260  1  0.54254737  0.78795131  0.12743691  1
  C  C261  1  0.57996587  0.63053271  0.23687490  1
  O  O262  1  0.98239491  0.56682134  0.06106033  1
  C  C263  1  0.56183475  0.55431625  0.24569596  1
  C  C264  1  0.50512300  0.64709451  0.14878387  1
  H  H265  1  0.88793302  0.56917387  0.00424293  1
  H  H266  1  0.83752175  0.58596763  0.26902758  1
  C  C267  1  0.87016370  0.54694301  0.36518802  1
  C  C268  1  0.87664293  0.57086611  0.30163488  1
  O  O269  1  0.62881862  0.54660845  0.33768572  1
  C  C270  1  0.93722030  0.57958138  0.27843830  1
  C  C271  1  0.59005997  0.51363072  0.30019702  1
  H  H272  1  0.58006052  0.60015131  0.47039263  1
  C  C273  1  0.80762574  0.52840858  0.39473428  1
  H  H274  1  0.61277961  0.65831129  0.26809558  1
  H  H275  1  0.61039927  0.97094856  0.46767774  1
  O  O276  1  0.75906036  0.53230696  0.35764086  1
  C  C277  1  0.98760249  0.55505375  0.31437247  1
  C  C278  1  0.97776901  0.53214365  0.38127699  1
  C  C279  1  0.65418967  0.96544315  0.49393725  1
  C  C280  1  0.91787245  0.52898479  0.40949157  1
  H  H281  1  0.90867119  0.51118042  0.46093640  1
  O  O282  1  0.81070065  0.50014035  0.44750286  1
  C  C283  1  0.93756674  0.74267624  0.56375190  1
  C  C284  1  0.61783599  0.84471260  0.53987362  1
  C  C285  1  0.90043650  0.79946364  0.74201394  1
  H  H286  1  0.60291975  0.67591423  0.67178859  1
  C  C287  1  0.62775816  0.55558644  0.65140231  1
  C  C288  1  0.99269248  0.87302446  0.72348107  1
  C  C289  1  0.50844076  0.74808511  0.56130307  1
  C  C290  1  0.59012771  0.64093905  0.57062179  1
  C  C291  1  0.57039184  0.72217542  0.55500111  1
  C  C292  1  0.62269376  0.76614119  0.54421524  1
  C  C293  1  0.60530598  0.62674688  0.63685765  1
  C  C294  1  0.88710582  0.97678648  0.55952550  1
  C  C295  1  0.59217857  0.58643159  0.52029480  1
  C  C296  1  0.55838813  0.87628834  0.55257499  1
  H  H297  1  0.51505903  0.92480730  0.64601115  1
  C  C298  1  0.65145032  0.53938358  0.71734269  1
  C  C299  1  0.96128301  0.66558193  0.71599100  1
  C  C300  1  0.96285044  0.79989704  0.72928203  1
  C  C301  1  0.94880340  0.95722070  0.57207107  1
  C  C302  1  0.96186153  0.88043968  0.57417485  1
  H  H303  1  0.74866125  0.82669228  0.55720524  1
  C  C304  1  0.89740524  0.66345454  0.72544134  1
  C  C305  1  0.61042913  0.51468867  0.54055884  1
  C  C306  1  0.50993439  0.82830716  0.56554088  1
  H  H307  1  0.55342574  0.93816043  0.55321532  1
  H  H308  1  0.66375658  0.73406455  0.53205163  1
  H  H309  1  0.86990244  0.61356208  0.71351598  1
  C  C310  1  0.91796969  0.82778063  0.56072454  1
  C  C311  1  0.84114098  0.92498241  0.54384328  1
  C  C312  1  0.86733858  0.73079456  0.74108961  1
  O  O313  1  0.89646924  0.69430471  0.55599293  1
  C  C314  1  0.77452083  0.94337466  0.53258330  1
  C  C315  1  0.67095522  0.89600193  0.52476344  1
  C  C316  1  0.86097967  0.84871933  0.54009162  1
  C  C317  1  0.73236611  0.88235125  0.53906392  1
  O  O318  1  0.99116455  0.73182288  0.57341840  1
  H  H319  1  0.83093727  0.80129595  0.52416790  1
  C  C320  1  0.98922153  0.58796029  0.70476726  1
  C  C321  1  0.99296217  0.73250741  0.71883731  1
  H  H322  1  0.52296290  0.68939779  0.74288610  1
  H  H323  1  0.87500024  0.85021263  0.74599048  1
  O  O324  1  0.96332662  0.93141554  0.74019880  1
  H  H325  1  0.97626288  0.55697600  0.50049329  1
  H  H326  1  0.94903754  0.60426911  0.89917547  1
  C  C327  1  0.98178996  0.73967221  0.96731614  1
  C  C328  1  0.54966983  0.70031115  0.88257538  1
  O  O329  1  0.98166677  0.54026428  0.81910270  1
  O  O330  1  0.79714187  0.58336251  0.90127065  1
  C  C331  1  0.79459678  0.51532760  0.91597299  1
  C  C332  1  0.65526057  0.74648960  0.89773650  1
  Cu  Cu333  1  0.76159924  0.68166313  0.93434386  1
  C  C334  1  0.58943657  0.76319667  0.89262781  1
  H  H335  1  0.59924886  0.88333746  0.88622605  1
  H  H336  1  0.91123575  0.90078803  0.92578889  1
  O  O337  1  0.76908804  0.77379527  0.77680777  1
  H  H338  1  0.56529373  0.64106993  0.88599744  1
  O  O339  1  0.68874560  0.80425624  0.89481616  1
  C  C340  1  0.56881896  0.83544602  0.88672248  1
  Cu  Cu341  1  0.71225749  0.62045856  0.80471588  1
  C  C342  1  0.94971264  0.86026671  0.93318851  1
  C  C343  1  0.93305249  0.78465973  0.94600469  1
  O  O344  1  0.67891556  0.68174032  0.90790020  1
  O  O345  1  0.64513647  0.59023016  0.75956327  1
  C  C346  1  0.50483641  0.84740546  0.88124231  1
  O  O347  1  0.83090373  0.81555005  0.91970813  1
  Cu  Cu348  1  0.76981483  0.80993855  0.86045129  1
  C  C349  1  0.86936510  0.76536007  0.93982717  1
  H  H350  1  0.97313855  0.68083349  0.97241799  1
  C  C351  1  0.80242335  0.71909834  0.75479936  1
  O  O352  1  0.51901145  0.97815988  0.87599610  1
  O  O353  1  0.78174718  0.65390699  0.75799343  1
  H  H354  1  0.91654148  0.64375442  0.82397148  1
  C  C355  1  0.95679652  0.61131744  0.84596627  1
  O  O356  1  0.84766034  0.70281052  0.95816375  1
  H  H357  1  0.99666018  0.65142388  0.84253802  1
  C  C358  1  0.88698676  0.50860552  0.99349566  1
  C  C359  1  0.99411555  0.53182691  0.75732758  1
