# generated using pymatgen
data_ZnH2(C3O2)2
_symmetry_space_group_name_H-M   'P 1'
_cell_length_a   12.92938045
_cell_length_b   14.00264687
_cell_length_c   17.47715480
_cell_angle_alpha   90.00000000
_cell_angle_beta   90.00000000
_cell_angle_gamma   90.00000000
_symmetry_Int_Tables_number   1
_chemical_formula_structural   ZnH2(C3O2)2
_chemical_formula_sum   'Zn18 H36 C108 O72'
_cell_volume   3164.16108048
_cell_formula_units_Z   18
loop_
 _symmetry_equiv_pos_site_id
 _symmetry_equiv_pos_as_xyz
  1  'x, y, z'
loop_
 _atom_site_type_symbol
 _atom_site_label
 _atom_site_symmetry_multiplicity
 _atom_site_fract_x
 _atom_site_fract_y
 _atom_site_fract_z
 _atom_site_occupancy
  C  C0  1  0.17073569  0.11545174  0.43583581  1
  O  O1  1  0.16775727  0.35890528  0.17211921  1
  H  H2  1  0.12453978  0.23885873  0.06740164  1
  C  C3  1  0.00385366  0.04171172  0.41311913  1
  Zn  Zn4  1  0.16315794  0.44271784  0.05943526  1
  C  C5  1  0.09329419  0.08198133  0.38576369  1
  H  H6  1  0.09696247  0.09968128  0.32460683  1
  C  C7  1  0.04914193  0.21951284  0.09795753  1
  C  C8  1  0.08310130  0.34172827  0.20385986  1
  O  O9  1  0.05350023  0.37354211  0.26523508  1
  C  C10  1  0.21045979  0.02212063  0.05201742  1
  C  C11  1  0.02338464  0.25981067  0.16768220  1
  O  O12  1  0.01762176  0.39285758  0.02539800  1
  C  C13  1  0.18509037  0.42032450  0.63459094  1
  O  O14  1  0.12150665  0.42225420  0.57860553  1
  O  O15  1  0.18342150  0.34636058  0.84739764  1
  O  O16  1  0.11064974  0.05697582  0.67091119  1
  C  C17  1  0.18046143  0.42260392  0.88281229  1
  O  O18  1  0.03084013  0.16886855  0.93462884  1
  C  C19  1  0.20839295  0.01545418  0.97255648  1
  H  H20  1  0.05351318  0.43700853  0.76378797  1
  H  H21  1  0.22194387  0.11038055  0.55460179  1
  C  C22  1  0.06620939  0.05306975  0.54096712  1
  C  C23  1  0.15630286  0.09485986  0.51360285  1
  O  O24  1  0.21991201  0.43482949  0.94711190  1
  C  C25  1  0.04504602  0.02774097  0.62210329  1
  O  O26  1  0.21478471  0.34222948  0.65953012  1
  O  O27  1  0.20472121  0.04349577  0.80589012  1
  O  O28  1  0.12788400  0.86718828  0.05948559  1
  C  C29  1  0.10539724  0.65460877  0.39742972  1
  O  O30  1  0.06814601  0.57278809  0.40831061  1
  O  O31  1  0.05973594  0.72123648  0.36526336  1
  C  C32  1  0.21455361  0.66902891  0.42258700  1
  C  C33  1  0.15752777  0.94690738  0.10160847  1
  O  O34  1  0.15015842  0.94122755  0.16854207  1
  O  O35  1  0.21319660  0.57961072  0.10317246  1
  H  H36  1  0.21620888  0.82484906  0.41507691  1
  H  H37  1  0.22354477  0.51926077  0.45347958  1
  H  H38  1  0.20910811  0.60173706  0.93004124  1
  O  O39  1  0.05212144  0.83715144  0.88541187  1
  C  C40  1  0.14828277  0.59925289  0.88296921  1
  C  C41  1  0.16331613  0.77908719  0.61464449  1
  C  C42  1  0.16580799  0.60069929  0.63741233  1
  H  H43  1  0.16964059  0.95433238  0.94790116  1
  O  O44  1  0.21501353  0.79395029  0.90725787  1
  O  O45  1  0.21947035  0.84811561  0.62681096  1
  H  H46  1  0.10459102  0.59240158  0.59766715  1
  C  C47  1  0.09789662  0.67966871  0.85254143  1
  C  C48  1  0.20716656  0.68961658  0.65271425  1
  O  O49  1  0.07906809  0.78419502  0.58122853  1
  C  C50  1  0.12488073  0.77798819  0.88463353  1
  C  C51  1  0.02856676  0.67583010  0.79171629  1
  C  C52  1  0.01770011  0.58741105  0.75581791  1
  C  C53  1  0.21774407  0.51569098  0.66402846  1
  Zn  Zn54  1  0.24979523  0.97093572  0.70295860  1
  C  C55  1  0.12252242  0.51005798  0.85421126  1
  C  C56  1  0.05998808  0.50543643  0.78863043  1
  C  C57  1  0.40079792  0.20534393  0.09312965  1
  O  O58  1  0.48047213  0.31330147  0.31854925  1
  O  O59  1  0.38513113  0.22255703  0.16150813  1
  O  O60  1  0.44925621  0.03865943  0.24719947  1
  C  C61  1  0.33024273  0.13855377  0.04928091  1
  O  O62  1  0.33870356  0.18985659  0.45708775  1
  Zn  Zn63  1  0.44223380  0.31829173  0.44542152  1
  Zn  Zn64  1  0.42618092  0.18231111  0.27748140  1
  C  C65  1  0.46516720  0.43607874  0.21346574  1
  C  C66  1  0.44801622  0.39751958  0.29364924  1
  O  O67  1  0.39788378  0.44261948  0.33832086  1
  O  O68  1  0.28073528  0.17759492  0.33893804  1
  O  O69  1  0.47751622  0.24034868  0.05868231  1
  H  H70  1  0.26152805  0.09013160  0.16066309  1
  C  C71  1  0.26237402  0.08804152  0.09737573  1
  C  C72  1  0.26795700  0.16217493  0.40763470  1
  Zn  Zn73  1  0.43645414  0.06510238  0.49890478  1
  O  O74  1  0.40568394  0.43277975  0.50823796  1
  C  C75  1  0.33310091  0.14134591  0.97021721  1
  H  H76  1  0.32636263  0.45426921  0.75125414  1
  O  O77  1  0.42842025  0.33405392  0.72624560  1
  Zn  Zn78  1  0.28265140  0.28697551  0.76420560  1
  O  O79  1  0.32194567  0.15329296  0.81574598  1
  H  H80  1  0.38825939  0.19177291  0.94297417  1
  O  O81  1  0.43776692  0.05994994  0.63115205  1
  H  H82  1  0.49453151  0.24673872  0.61550276  1
  C  C83  1  0.26581006  0.08134747  0.93129671  1
  C  C84  1  0.26673135  0.08922730  0.84594628  1
  C  C85  1  0.46561380  0.01254802  0.68657713  1
  H  H86  1  0.48285694  0.52671672  0.00602045  1
  H  H87  1  0.44024550  0.98034006  0.11189029  1
  O  O88  1  0.34202131  0.93778810  0.45891188  1
  C  C89  1  0.30343438  0.59752164  0.08754621  1
  C  C90  1  0.39807629  0.53851271  0.11433022  1
  C  C91  1  0.35669944  0.76935307  0.45995066  1
  O  O92  1  0.32712673  0.66799663  0.04537733  1
  C  C93  1  0.41353271  0.68787475  0.48620652  1
  C  C94  1  0.40307053  0.86848325  0.47161541  1
  Zn  Zn95  1  0.27217810  0.79949840  0.02022192  1
  C  C96  1  0.36609827  0.60092718  0.47470718  1
  C  C97  1  0.47714420  0.51213264  0.06633394  1
  H  H98  1  0.33736528  0.53570615  0.22906209  1
  C  C99  1  0.39346059  0.50749630  0.18988467  1
  C  C100  1  0.25916926  0.76167443  0.42845694  1
  C  C101  1  0.26503496  0.58865043  0.45061651  1
  O  O102  1  0.49199931  0.88807756  0.49330262  1
  C  C103  1  0.28739281  0.69127806  0.70736649  1
  O  O104  1  0.42012325  0.71109641  0.82322531  1
  H  H105  1  0.32751882  0.75732646  0.72432432  1
  C  C106  1  0.28977920  0.51914794  0.72365624  1
  O  O107  1  0.40669390  0.94676226  0.70922489  1
  C  C108  1  0.39336497  0.62491404  0.80953834  1
  C  C109  1  0.32151984  0.60995033  0.74434877  1
  O  O110  1  0.40510235  0.90014728  0.99082819  1
  O  O111  1  0.42587123  0.55653005  0.84992678  1
  C  C112  1  0.44091017  0.51894873  0.50400503  1
  H  H113  1  0.49498047  0.69436587  0.50475187  1
  O  O114  1  0.54575484  0.18537532  0.48196410  1
  Zn  Zn115  1  0.62767590  0.19557873  0.05958378  1
  O  O116  1  0.69391418  0.34637382  0.06129761  1
  O  O117  1  0.69229237  0.12839403  0.15617688  1
  Zn  Zn118  1  0.70068279  0.09826860  0.35726450  1
  H  H119  1  0.60278634  0.35077254  0.18521594  1
  C  C120  1  0.63067920  0.40769787  0.03825025  1
  O  O121  1  0.71767633  0.17716943  0.46268354  1
  C  C122  1  0.55307716  0.44995088  0.09436636  1
  C  C123  1  0.54514712  0.40584929  0.16519024  1
  O  O124  1  0.74870925  0.18790234  0.26623770  1
  C  C125  1  0.53707261  0.00685245  0.25244644  1
  O  O126  1  0.58738869  0.00096129  0.31352702  1
  C  C127  1  0.58148256  0.09398538  0.78409893  1
  H  H128  1  0.71508936  0.33067968  0.78951260  1
  C  C129  1  0.51692538  0.32244441  0.75844095  1
  H  H130  1  0.72624423  0.45280086  0.62055533  1
  C  C131  1  0.69934532  0.30154000  0.73155650  1
  C  C132  1  0.57825083  0.25389733  0.63238798  1
  O  O133  1  0.66513923  0.12441476  0.95459618  1
  C  C134  1  0.66139914  0.23186680  0.58276096  1
  C  C135  1  0.68425751  0.10160438  0.82459176  1
  Zn  Zn136  1  0.72126783  0.07792145  0.71508044  1
  C  C137  1  0.59827384  0.28580063  0.70542866  1
  H  H138  1  0.52200620  0.15033104  0.79865450  1
  O  O139  1  0.62641252  0.43920584  0.97210980  1
  C  C140  1  0.70036887  0.15447143  0.89171678  1
  O  O141  1  0.53058243  0.35017819  0.82424466  1
  C  C142  1  0.64044050  0.19592983  0.50231187  1
  C  C143  1  0.56609759  0.02611341  0.71813125  1
  C  C144  1  0.74745289  0.00768052  0.81765914  1
  C  C145  1  0.66905692  0.87800339  0.05716357  1
  C  C146  1  0.72498977  0.88257498  0.12494092  1
  C  C147  1  0.68069051  0.92456047  0.18909763  1
  C  C148  1  0.57927858  0.95851408  0.18236220  1
  C  C149  1  0.56689632  0.90935114  0.05348682  1
  O  O150  1  0.58366746  0.69258946  0.03018302  1
  C  C151  1  0.51950740  0.95300636  0.11780349  1
  C  C152  1  0.73411410  0.60445165  0.03666184  1
  C  C153  1  0.74836080  0.62642313  0.11522308  1
  H  H154  1  0.71547628  0.91935667  0.24474335  1
  H  H155  1  0.70318819  0.67660351  0.14956334  1
  H  H156  1  0.70619856  0.84804746  0.00548922  1
  O  O157  1  0.54217269  0.85976767  0.92491690  1
  C  C158  1  0.64283151  0.94563774  0.70412109  1
  O  O159  1  0.62320406  0.66934279  0.73359572  1
  Zn  Zn160  1  0.57728007  0.74825983  0.83918741  1
  C  C161  1  0.70881314  0.60025957  0.63204316  1
  C  C162  1  0.66262286  0.59484752  0.71071000  1
  C  C163  1  0.73789525  0.52010523  0.58964694  1
  H  H164  1  0.61478349  0.89342478  0.66104617  1
  O  O165  1  0.63241596  0.63133319  0.91790426  1
  H  H166  1  0.67838832  0.75500104  0.62276642  1
  O  O167  1  0.65846423  0.52049861  0.75312457  1
  C  C168  1  0.71176871  0.68700360  0.59624449  1
  C  C169  1  0.73646673  0.93645257  0.75415570  1
  C  C170  1  0.50052907  0.89042189  0.98457006  1
  C  C171  1  0.64457158  0.64726139  0.99346191  1
  Zn  Zn172  1  0.57490126  0.50058493  0.85716376  1
  O  O173  1  0.52807417  0.53613648  0.52501174  1
  O  O174  1  0.74223788  0.79655052  0.82785503  1
  C  C175  1  0.81380655  0.44450303  0.46357795  1
  C  C176  1  0.93906631  0.22584906  0.20912933  1
  C  C177  1  0.87310424  0.16765435  0.16701242  1
  C  C178  1  0.89399129  0.12305835  0.09623142  1
  H  H179  1  0.91125431  0.26024263  0.26339616  1
  C  C180  1  0.98557093  0.15037934  0.06467192  1
  H  H181  1  0.83362640  0.07342879  0.06772454  1
  Zn  Zn182  1  0.98158456  0.47411731  0.33661348  1
  H  H183  1  0.96102108  0.48872637  0.13942706  1
  O  O184  1  0.83384331  0.46083921  0.39477001  1
  O  O185  1  0.84707237  0.36714972  0.49093859  1
  C  C186  1  0.98545074  0.02899525  0.49038355  1
  C  C187  1  0.76617746  0.16005391  0.19819154  1
  O  O188  1  0.95702826  0.26829548  0.66017051  1
  O  O189  1  0.89598464  0.30948878  0.77460450  1
  C  C190  1  0.88725884  0.27615020  0.70748665  1
  O  O191  1  0.95691747  0.03677245  0.96300916  1
  H  H192  1  0.82712695  0.22656724  0.56372685  1
  O  O193  1  0.92200239  0.41082171  0.92457549  1
  C  C194  1  0.77555789  0.27073672  0.68164305  1
  Zn  Zn195  1  0.91570392  0.26562326  0.88616402  1
  C  C196  1  0.99766479  0.11227040  0.98331858  1
  Zn  Zn197  1  0.96931123  0.38911352  0.57512568  1
  C  C198  1  0.94153294  0.43109513  0.99217298  1
  O  O199  1  0.75383402  0.22987076  0.89053183  1
  O  O200  1  0.94049950  0.49489110  0.65902668  1
  C  C201  1  0.76454336  0.23932010  0.60615763  1
  C  C202  1  0.91838656  0.99388170  0.36289504  1
  C  C203  1  0.87528641  0.60718179  0.23157840  1
  O  O204  1  0.80676346  0.80079637  0.42421850  1
  C  C205  1  0.83627168  0.58959545  0.15079238  1
  C  C206  1  0.89880878  0.52841925  0.10937300  1
  O  O207  1  0.82981413  0.66255308  0.27711442  1
  O  O208  1  0.88951273  0.84448531  0.18237324  1
  H  H209  1  0.81828611  0.62467653  0.42503433  1
  C  C210  1  0.83766444  0.84777524  0.12513902  1
  Zn  Zn211  1  0.91551926  0.79011657  0.31588513  1
  C  C212  1  0.78792918  0.61707791  0.48130241  1
  O  O213  1  0.94638155  0.94337479  0.30814862  1
  C  C214  1  0.79044459  0.79583158  0.49371698  1
  O  O215  1  0.87154755  0.81949547  0.05807070  1
  O  O216  1  0.96472327  0.57802547  0.24995834  1
  O  O217  1  0.82679987  0.99766109  0.37938409  1
  C  C218  1  0.87746389  0.50341781  0.03252210  1
  Zn  Zn219  1  0.92389517  0.82495644  0.62176798  1
  C  C220  1  0.75777568  0.69670068  0.52331767  1
  O  O221  1  0.86128536  0.82119828  0.73991322  1
  C  C222  1  0.95677676  0.57984225  0.68123629  1
  C  C223  1  0.77937052  0.83949927  0.77093387  1
  O  O224  1  0.80411591  0.86218165  0.53999596  1
  O  O225  1  0.93767635  0.65361508  0.64805185  1
  C  C226  1  0.79942107  0.55024150  0.99117236  1
  C  C227  1  0.77530495  0.52597740  0.51460624  1
  H  H228  1  0.78641006  0.53992547  0.92795249  1
  O  O229  1  0.96692010  0.98327164  0.64065934  1
  H  H230  1  0.91451660  0.99340209  0.51174900  1
  H  H231  1  0.79211037  0.98467817  0.87093219  1
  H  H232  1  0.99494618  0.74045557  0.76472473  1
  Zn  Zn233  1  0.99046303  0.88545031  0.99897149  1
