# generated using pymatgen
data_Cu3H15C36NO12
_symmetry_space_group_name_H-M   'P 1'
_cell_length_a   7.26205314
_cell_length_b   30.61676382
_cell_length_c   34.18847325
_cell_angle_alpha   90.00000000
_cell_angle_beta   90.00000000
_cell_angle_gamma   90.00000000
_symmetry_Int_Tables_number   1
_chemical_formula_structural   Cu3H15C36NO12
_chemical_formula_sum   'Cu24 H120 C288 N8 O96'
_cell_volume   7601.48449330
_cell_formula_units_Z   8
loop_
 _symmetry_equiv_pos_site_id
 _symmetry_equiv_pos_as_xyz
  1  'x, y, z'
loop_
 _atom_site_type_symbol
 _atom_site_label
 _atom_site_symmetry_multiplicity
 _atom_site_fract_x
 _atom_site_fract_y
 _atom_site_fract_z
 _atom_site_occupancy
  C  C0  1  0.31150921  0.06009836  0.03042156  1
  H  H1  1  0.27381856  0.04527787  0.05891801  1
  C  C2  1  0.36869149  0.10359786  0.02677898  1
  O  O3  1  0.30862249  0.12447222  0.09336595  1
  C  C4  1  0.38709420  0.13607367  0.06019560  1
  C  C5  1  0.38598672  0.16129956  0.19862634  1
  O  O6  1  0.30620699  0.12807003  0.20529942  1
  C  C7  1  0.42016520  0.19395756  0.23090174  1
  O  O8  1  0.44566876  0.17133934  0.05368840  1
  O  O9  1  0.45636308  0.16857714  0.16357969  1
  Cu  Cu10  1  0.13393295  0.15314430  0.11818374  1
  C  C11  1  0.04071865  0.23737022  0.20723119  1
  C  C12  1  0.49448247  0.23531052  0.22299661  1
  H  H13  1  0.09651590  0.24562923  0.17806791  1
  Cu  Cu14  1  0.40341929  0.36582092  0.20892683  1
  O  O15  1  0.20804576  0.32469432  0.20896079  1
  C  C16  1  0.22941861  0.47982776  0.23200733  1
  C  C17  1  0.17032579  0.43329099  0.23144850  1
  O  O18  1  0.21908555  0.40996711  0.20319443  1
  C  C19  1  0.30378509  0.49730022  0.19852095  1
  H  H20  1  0.32281481  0.47445183  0.17292852  1
  C  C21  1  0.06441279  0.26440908  0.24105418  1
  C  C22  1  0.13447513  0.31049308  0.23948595  1
  C  C23  1  0.10484005  0.10338022  0.39997856  1
  C  C24  1  0.17460735  0.14232641  0.38210104  1
  C  C25  1  0.17029530  0.17725509  0.41275639  1
  C  C26  1  0.24178081  0.21974772  0.40434440  1
  C  C27  1  0.32302035  0.19358715  0.33814837  1
  C  C28  1  0.26448719  0.15000115  0.34538282  1
  H  H29  1  0.26951761  0.12535928  0.32252914  1
  H  H30  1  0.28390964  0.14972033  0.27010192  1
  C  C31  1  0.35627615  0.18111071  0.26785777  1
  N  N32  1  0.10932808  0.15862362  0.44792710  1
  C  C33  1  0.40000653  0.20778994  0.29884364  1
  C  C34  1  0.32266851  0.22708639  0.36816222  1
  C  C35  1  0.10597215  0.17860386  0.48558328  1
  H  H36  1  0.36606518  0.02968161  0.31406568  1
  C  C37  1  0.06180127  0.11582435  0.44173992  1
  C  C38  1  0.07622611  0.06127637  0.38676318  1
  H  H39  1  0.11907572  0.05095048  0.35596825  1
  H  H40  1  0.44517610  0.08825284  0.47217957  1
  C  C41  1  0.45797266  0.03820630  0.42490658  1
  H  H42  1  0.49904551  0.23797910  0.45306113  1
  H  H43  1  0.24085084  0.24649996  0.42718121  1
  C  C44  1  0.02091284  0.22138134  0.48609606  1
  H  H45  1  0.37497003  0.01492972  0.44225572  1
  O  O46  1  0.21467189  0.01139322  0.25843100  1
  O  O47  1  0.08031339  0.41916288  0.26020843  1
  O  O48  1  0.10612920  0.33511373  0.26816468  1
  H  H49  1  0.12218542  0.48982672  0.29377355  1
  H  H50  1  0.38156293  0.26020216  0.35999198  1
  C  C51  1  0.16480762  0.18038063  0.55390565  1
  C  C52  1  0.23193493  0.16138576  0.59067702  1
  Cu  Cu53  1  0.31640817  0.15598634  0.66562571  1
  O  O54  1  0.23167999  0.18335701  0.62091902  1
  O  O55  1  0.44107474  0.12807732  0.70661785  1
  O  O56  1  0.29152008  0.12250356  0.58897376  1
  C  C57  1  0.17058088  0.15787482  0.51949124  1
  H  H58  1  0.23500446  0.12677730  0.51678368  1
  C  C59  1  0.42589803  0.05735562  0.73259128  1
  Cu  Cu60  1  0.46561307  0.10227978  0.62407610  1
  C  C61  1  0.48077460  0.08871065  0.70216027  1
  C  C62  1  0.47934346  0.01387145  0.72910034  1
  C  C63  1  0.07975423  0.22204882  0.55469229  1
  O  O64  1  0.08213850  0.14123632  0.68400150  1
  H  H65  1  0.07821337  0.05864786  0.68784656  1
  H  H66  1  0.07057419  0.23841839  0.58240340  1
  O  O67  1  0.07533656  0.17114408  0.74265907  1
  C  C68  1  0.00608500  0.24141812  0.52229937  1
  C  C69  1  0.04263853  0.13945447  0.71928976  1
  O  O70  1  0.41420755  0.29207448  0.50341498  1
  C  C71  1  0.43775595  0.39987490  0.66026318  1
  H  H72  1  0.40302560  0.49168714  0.58144217  1
  C  C73  1  0.10200443  0.29387870  0.74184035  1
  O  O74  1  0.08934551  0.32711590  0.72095992  1
  Cu  Cu75  1  0.08164103  0.32382949  0.66486717  1
  O  O76  1  0.41531590  0.35537427  0.60057760  1
  C  C77  1  0.47467717  0.43721701  0.63870734  1
  O  O78  1  0.31349283  0.32825805  0.65490155  1
  H  H79  1  0.39386883  0.36967224  0.71651363  1
  C  C80  1  0.44142578  0.39964799  0.70096184  1
  O  O81  1  0.08165013  0.25558744  0.72739634  1
  C  C82  1  0.39369459  0.35873774  0.63582964  1
  C  C83  1  0.49364038  0.43774244  0.72070522  1
  H  H84  1  0.47948100  0.43277210  0.60695934  1
  C  C85  1  0.48303155  0.26772304  0.52576686  1
  O  O86  1  0.49598409  0.27759989  0.56319045  1
  C  C87  1  0.34519738  0.19983323  0.84630120  1
  C  C88  1  0.28298826  0.04024026  0.79507244  1
  C  C89  1  0.34664762  0.15692552  0.91052528  1
  C  C90  1  0.24489790  0.18860586  0.93197550  1
  C  C91  1  0.33798642  0.05194998  0.96100923  1
  C  C92  1  0.32562250  0.07139402  0.76549643  1
  H  H93  1  0.32048429  0.03264552  0.93411144  1
  H  H94  1  0.17300760  0.17999422  0.95957275  1
  C  C95  1  0.17036086  0.05066414  0.83129563  1
  H  H96  1  0.28461921  0.10588800  0.76844346  1
  C  C97  1  0.19921863  0.22541487  0.91001527  1
  C  C98  1  0.23851521  0.23057322  0.86932366  1
  H  H99  1  0.17035787  0.23008886  0.79068208  1
  N  N100  1  0.39684134  0.11385015  0.91922846  1
  C  C101  1  0.39265943  0.16298927  0.86888058  1
  C  C102  1  0.38709480  0.09633562  0.95769811  1
  H  H103  1  0.37204744  0.20360540  0.81491731  1
  C  C104  1  0.11555233  0.01711034  0.85910309  1
  H  H105  1  0.14894274  0.11735102  0.82135122  1
  C  C106  1  0.41485851  0.12214529  0.99208454  1
  H  H107  1  0.46415182  0.15574631  0.98989409  1
  C  C108  1  0.11382989  0.09199302  0.84195216  1
  C  C109  1  0.03079409  0.02137405  0.89546490  1
  C  C110  1  0.01071838  0.10080254  0.87655385  1
  C  C111  1  0.29655773  0.03387260  0.99693895  1
  C  C112  1  0.47973752  0.09458863  0.88671190  1
  C  C113  1  0.49842653  0.12518283  0.85305834  1
  H  H114  1  0.12435863  0.25263105  0.92686139  1
  C  C115  1  0.07744114  0.33964192  0.80005690  1
  O  O116  1  0.02095125  0.38810049  0.89586746  1
  C  C117  1  0.02995508  0.38669478  0.85897159  1
  C  C118  1  0.07315455  0.34473799  0.84107593  1
  O  O119  1  0.43457163  0.40130836  0.77690486  1
  C  C120  1  0.11568112  0.29917605  0.78440804  1
  O  O121  1  0.16246659  0.44474496  0.99013275  1
  O  O122  1  0.06544711  0.46125563  0.93138202  1
  C  C123  1  0.12476368  0.30870313  0.86536732  1
  C  C124  1  0.12693714  0.47085772  0.96636059  1
  C  C125  1  0.16050767  0.26847697  0.84664094  1
  H  H126  1  0.13827614  0.31248317  0.89743064  1
  Cu  Cu127  1  0.33711045  0.39949535  0.82651396  1
  C  C128  1  0.14130222  0.26152364  0.80704764  1
  O  O129  1  0.01830752  0.42144510  0.83910322  1
  H  H130  1  0.04970386  0.36670250  0.78092981  1
  C  C131  1  0.16641756  0.64221366  0.06613519  1
  C  C132  1  0.27326815  0.71619593  0.11227311  1
  C  C133  1  0.15411357  0.68339506  0.12919437  1
  C  C134  1  0.27458914  0.67725113  0.04770331  1
  C  C135  1  0.33050513  0.71319885  0.07089218  1
  C  C136  1  0.12189243  0.64644538  0.10631484  1
  C  C137  1  0.36735276  0.54036630  0.19918954  1
  C  C138  1  0.41061263  0.53824415  0.12839601  1
  N  N139  1  0.11678179  0.60013346  0.05263175  1
  C  C140  1  0.13992040  0.58306836  0.01508673  1
  H  H141  1  0.23913117  0.73390388  0.19146241  1
  C  C142  1  0.37954345  0.56138301  0.23479862  1
  H  H143  1  0.33833065  0.67173411  0.01932310  1
  H  H144  1  0.07726054  0.68809296  0.15680776  1
  C  C145  1  0.14040000  0.53582796  0.00948836  1
  H  H146  1  0.16341597  0.51307769  0.03370741  1
  H  H147  1  0.41465256  0.73772925  0.05763564  1
  C  C148  1  0.02561200  0.57614519  0.08063201  1
  C  C149  1  0.02748516  0.60342703  0.11689531  1
  C  C150  1  0.43585424  0.56417923  0.16222339  1
  H  H151  1  0.43108927  0.53768952  0.06567874  1
  H  H152  1  0.40532049  0.59576491  0.23506046  1
  C  C153  1  0.45155791  0.55665919  0.09174209  1
  H  H154  1  0.35637699  0.50604988  0.13050918  1
  C  C155  1  0.30436783  0.75991212  0.17587394  1
  C  C156  1  0.44183123  0.83324168  0.17526456  1
  H  H157  1  0.47630456  0.86288315  0.19052143  1
  C  C158  1  0.38807490  0.79386896  0.11457583  1
  C  C159  1  0.33724066  0.79739657  0.23869507  1
  C  C160  1  0.36727955  0.79778611  0.19455609  1
  C  C161  1  0.44203819  0.83053355  0.13398549  1
  C  C162  1  0.49097017  0.86707656  0.10845766  1
  O  O163  1  0.10828311  0.88844807  0.06013995  1
  Cu  Cu164  1  0.32318459  0.92008454  0.05612574  1
  H  H165  1  0.39425539  0.79342579  0.08250217  1
  C  C166  1  0.32178992  0.75629132  0.13505325  1
  O  O167  1  0.20780514  0.96996855  0.03691997  1
  O  O168  1  0.45406407  0.86548207  0.07279864  1
  O  O169  1  0.18300435  0.94171202  0.24440118  1
  C  C170  1  0.02180516  0.89108076  0.09157477  1
  H  H171  1  0.00574967  0.79950942  0.07329833  1
  C  C172  1  0.21919538  0.98845939  0.00218390  1
  C  C173  1  0.25437459  0.65142994  0.44466049  1
  C  C174  1  0.26787909  0.62268271  0.41126084  1
  C  C175  1  0.27454113  0.69644678  0.44187345  1
  C  C176  1  0.29644499  0.54183585  0.26735297  1
  C  C177  1  0.20654905  0.62984156  0.47894098  1
  H  H178  1  0.19674578  0.59367417  0.48143800  1
  O  O179  1  0.18201638  0.58703301  0.40800402  1
  C  C180  1  0.28088782  0.56543513  0.30420247  1
  C  C181  1  0.21659827  0.72192220  0.47334704  1
  H  H182  1  0.32040932  0.71047537  0.41404315  1
  O  O183  1  0.19467025  0.55024860  0.33439491  1
  Cu  Cu184  1  0.00483917  0.57571037  0.36766674  1
  O  O185  1  0.39174462  0.59606403  0.30967364  1
  O  O186  1  0.36266704  0.63862832  0.38434338  1
  C  C187  1  0.20339648  0.50221219  0.26706650  1
  O  O188  1  0.25459790  0.76786382  0.25277710  1
  C  C189  1  0.45492622  0.86494663  0.36137511  1
  C  C190  1  0.45934363  0.94431469  0.37677584  1
  C  C191  1  0.44791490  0.98878446  0.36490174  1
  C  C192  1  0.24960093  0.97379441  0.26446883  1
  C  C193  1  0.42738630  0.91067611  0.35006783  1
  C  C194  1  0.35008009  0.91801701  0.31231043  1
  O  O195  1  0.39212757  0.83119966  0.25743550  1
  C  C196  1  0.22315116  0.76893616  0.46820456  1
  H  H197  1  0.31548632  0.89316129  0.29165271  1
  C  C198  1  0.38981691  0.99733301  0.32579190  1
  O  O199  1  0.16868858  0.78974293  0.49779046  1
  C  C200  1  0.34054835  0.96191525  0.30339108  1
  O  O201  1  0.28491610  0.78492169  0.43686136  1
  O  O202  1  0.45967754  0.83477062  0.33637851  1
  O  O203  1  0.47860410  0.85808984  0.39780355  1
  C  C204  1  0.27987428  0.64016888  0.61524980  1
  C  C205  1  0.28270512  0.66692240  0.57840455  1
  C  C206  1  0.19786087  0.59784314  0.60511670  1
  N  N207  1  0.19916324  0.64197204  0.55031364  1
  C  C208  1  0.15626533  0.59893496  0.56335902  1
  C  C209  1  0.32949070  0.65941294  0.65026174  1
  H  H210  1  0.30844867  0.64475192  0.67961801  1
  C  C211  1  0.15876102  0.56040210  0.62744796  1
  H  H212  1  0.20672679  0.55645278  0.65781408  1
  H  H213  1  0.11398132  0.72373038  0.53348510  1
  C  C214  1  0.37078863  0.70879580  0.57810693  1
  C  C215  1  0.17225444  0.65784144  0.51198227  1
  C  C216  1  0.04623865  0.52785176  0.61077047  1
  C  C217  1  0.16556894  0.70403214  0.50887140  1
  C  C218  1  0.41923205  0.70182070  0.64891584  1
  C  C219  1  0.06101186  0.56460214  0.54440522  1
  H  H220  1  0.03047244  0.52473282  0.68998407  1
  H  H221  1  0.01530641  0.74384744  0.63862616  1
  C  C222  1  0.00154760  0.53162686  0.56995833  1
  H  H223  1  0.01488970  0.56524654  0.51255522  1
  H  H224  1  0.38832860  0.72386465  0.54872485  1
  C  C225  1  0.45061427  0.72454802  0.61295282  1
  C  C226  1  0.49793642  0.51611115  0.59324015  1
  H  H227  1  0.47667910  0.64529050  0.70822681  1
  C  C228  1  0.48143384  0.71427605  0.68963464  1
  H  H229  1  0.47850172  0.55815092  0.54200512  1
  O  O230  1  0.02051228  0.50422183  0.74886654  1
  C  C231  1  0.05469161  0.82783657  0.74597425  1
  O  O232  1  0.03923468  0.97600191  0.68742900  1
  C  C233  1  0.04551505  0.77975311  0.74497579  1
  Cu  Cu234  1  0.30144271  0.68685058  0.88166481  1
  C  C235  1  0.14690757  0.61096732  0.98236069  1
  C  C236  1  0.12640567  0.52088700  0.97137903  1
  C  C237  1  0.11378104  0.59447598  0.94494143  1
  H  H238  1  0.14900500  0.64596942  0.98601754  1
  O  O239  1  0.13451847  0.71295500  0.84527444  1
  C  C240  1  0.10274316  0.54867161  0.94051765  1
  C  C241  1  0.06130996  0.71186270  0.77728386  1
  C  C242  1  0.07051030  0.69107118  0.81631347  1
  O  O243  1  0.13043931  0.65988508  0.91270291  1
  C  C244  1  0.07890128  0.62129619  0.90925804  1
  H  H245  1  0.09235073  0.53664458  0.91081784  1
  O  O246  1  0.01520570  0.65260182  0.82034027  1
  O  O247  1  0.01025576  0.60573365  0.87874128  1
  O  O248  1  0.49675600  0.66541564  0.91418438  1
  H  H249  1  0.00804998  0.99362118  0.91459347  1
  O  O250  1  0.47592856  0.91491412  0.78454940  1
  O  O251  1  0.18597725  0.97006832  0.97201399  1
  C  C252  1  0.32110461  0.99598901  0.79082320  1
  H  H253  1  0.27635345  0.97001788  0.81151517  1
  H  H254  1  0.13998540  0.98220266  0.85366397  1
  O  O255  1  0.10270506  0.84542074  0.77748999  1
  C  C256  1  0.43050489  0.98453427  0.75876628  1
  C  C257  1  0.10697348  0.75640466  0.77760427  1
  Cu  Cu258  1  0.33994087  0.86717588  0.78260609  1
  H  H259  1  0.16300903  0.77229479  0.80421678  1
  C  C260  1  0.48507525  0.93742319  0.75472146  1
  C  C261  1  0.72658938  0.03767581  0.04588479  1
  H  H262  1  0.65324478  0.02816540  0.07251002  1
  C  C263  1  0.82385729  0.07676981  0.04506659  1
  O  O264  1  0.77888956  0.09249537  0.11362514  1
  C  C265  1  0.85364112  0.10171941  0.08164175  1
  C  C266  1  0.72635355  0.00851544  0.01394919  1
  O  O267  1  0.78299116  0.14322049  0.17785736  1
  C  C268  1  0.89766663  0.09120625  0.00919807  1
  C  C269  1  0.88561757  0.17754140  0.17553066  1
  C  C270  1  0.92926218  0.20122307  0.21190515  1
  O  O271  1  0.96032286  0.13436132  0.08163823  1
  Cu  Cu272  1  0.61629204  0.13153216  0.13989650  1
  H  H273  1  0.97062896  0.12369891  0.00868244  1
  O  O274  1  0.96510936  0.18676915  0.14440606  1
  H  H275  1  0.77150465  0.15698548  0.24921817  1
  C  C276  1  0.85867381  0.18691586  0.24792998  1
  H  H277  1  0.52208444  0.24484147  0.19243035  1
  O  O278  1  0.60267074  0.40900088  0.20753445  1
  H  H279  1  0.77830699  0.46655163  0.17767110  1
  O  O280  1  0.74233472  0.46873416  0.00770717  1
  O  O281  1  0.58676034  0.32172667  0.21510022  1
  C  C282  1  0.78380674  0.49027071  0.20118579  1
  C  C283  1  0.73303965  0.47462906  0.23761720  1
  C  C284  1  0.66317579  0.42834413  0.23659914  1
  H  H285  1  0.80395779  0.48628769  0.11715133  1
  C  C286  1  0.61765845  0.30525810  0.24813636  1
  C  C287  1  0.72369747  0.14135504  0.36316231  1
  C  C288  1  0.69804985  0.17621470  0.39375289  1
  N  N289  1  0.63208179  0.15508366  0.42566436  1
  C  C290  1  0.65950063  0.09924362  0.38061689  1
  C  C291  1  0.79470604  0.15253635  0.32665041  1
  C  C292  1  0.75459943  0.22016866  0.38693094  1
  C  C293  1  0.82526217  0.22925772  0.35027236  1
  C  C294  1  0.83963877  0.19757563  0.31934060  1
  H  H295  1  0.80811463  0.12774515  0.30356882  1
  C  C296  1  0.60931381  0.16922415  0.46507156  1
  C  C297  1  0.88528479  0.21379511  0.27953593  1
  C  C298  1  0.64142281  0.05715667  0.36430341  1
  H  H299  1  0.70811164  0.04927627  0.33624006  1
  C  C300  1  0.60182579  0.10970245  0.41959345  1
  H  H301  1  0.75922190  0.24592516  0.40974792  1
  C  C302  1  0.91541122  0.04469420  0.45156978  1
  H  H303  1  0.83141279  0.02185175  0.46934415  1
  H  H304  1  0.95204567  0.23242633  0.46023841  1
  H  H305  1  0.95379307  0.09482131  0.49744838  1
  C  C306  1  0.53901711  0.21250725  0.47441570  1
  C  C307  1  0.50372369  0.07834800  0.44289352  1
  H  H308  1  0.72753692  0.10867019  0.48771681  1
  C  C309  1  0.50101879  0.24725436  0.29257970  1
  C  C310  1  0.98304357  0.03300560  0.41332819  1
  C  C311  1  0.97784635  0.08533509  0.46762621  1
  C  C312  1  0.52414240  0.02911515  0.38617901  1
  C  C313  1  0.66316689  0.14040439  0.49558546  1
  H  H314  1  0.99898320  0.27702599  0.30178303  1
  Cu  Cu315  1  0.89975263  0.37140939  0.26982233  1
  H  H316  1  0.74236433  0.49175278  0.29940978  1
  O  O317  1  0.72053905  0.32195536  0.27350341  1
  C  C318  1  0.98575625  0.25522440  0.27694234  1
  C  C319  1  0.53349824  0.26187836  0.25471476  1
  O  O320  1  0.88665045  0.30499331  0.49750247  1
  H  H321  1  0.56545255  0.26662267  0.31665199  1
  H  H322  1  0.86171832  0.26390212  0.34417858  1
  O  O323  1  0.69404906  0.41005186  0.26935139  1
  C  C324  1  0.72152954  0.11806366  0.56534231  1
  O  O325  1  0.78735860  0.08389109  0.55562307  1
  O  O326  1  0.67516815  0.12427877  0.60252524  1
  Cu  Cu327  1  0.90752962  0.21597752  0.74256811  1
  C  C328  1  0.65254118  0.15234486  0.53466225  1
  C  C329  1  0.58107630  0.19268927  0.54503265  1
  C  C330  1  0.97566603  0.09788534  0.73608319  1
  C  C331  1  0.93516724  0.02183146  0.73510247  1
  C  C332  1  0.99849454  0.05850942  0.71584441  1
  C  C333  1  0.53538093  0.22190551  0.51372463  1
  H  H334  1  0.58366455  0.20375548  0.57609791  1
  H  H335  1  0.56860744  0.00041429  0.70417431  1
  O  O336  1  0.55703405  0.07566829  0.67028795  1
  H  H337  1  0.88907367  0.39038735  0.70467001  1
  C  C338  1  0.91697165  0.28577632  0.52630140  1
  C  C339  1  0.92857131  0.41723889  0.68402552  1
  C  C340  1  0.97322766  0.45775586  0.69941407  1
  H  H341  1  0.91251832  0.44498426  0.58692443  1
  C  C342  1  0.99106902  0.48938740  0.63447315  1
  C  C343  1  0.53307848  0.47473095  0.70018096  1
  C  C344  1  0.96803378  0.46767615  0.74158304  1
  O  O345  1  0.78475530  0.37166608  0.59419355  1
  C  C346  1  0.89980938  0.41552311  0.64323944  1
  C  C347  1  0.93185802  0.44969275  0.61791357  1
  Cu  Cu348  1  0.62900174  0.32697339  0.57770793  1
  C  C349  1  0.83301275  0.37405338  0.63020660  1
  O  O350  1  0.85193062  0.29568959  0.56161409  1
  C  C351  1  0.52212852  0.47668696  0.65911424  1
  O  O352  1  0.85295912  0.34080146  0.65191994  1
  C  C353  1  0.99816795  0.49394556  0.67553344  1
  O  O354  1  0.57013018  0.28875004  0.74403118  1
  C  C355  1  0.76508324  0.15955566  0.95393258  1
  C  C356  1  0.90059278  0.18471785  0.87692641  1
  C  C357  1  0.80260797  0.06202192  0.78551289  1
  C  C358  1  0.77303785  0.21137363  0.89796193  1
  C  C359  1  0.71554318  0.20061722  0.93777072  1
  C  C360  1  0.87685474  0.06464423  0.97596467  1
  C  C361  1  0.87203024  0.12902948  0.93199773  1
  H  H362  1  0.71227255  0.21003981  0.82271297  1
  C  C363  1  0.66782688  0.07183128  0.81841759  1
  C  C364  1  0.66387969  0.04244811  0.85079880  1
  C  C365  1  0.80453898  0.02108031  0.97872384  1
  H  H366  1  0.72438374  0.15037251  0.98404728  1
  N  N367  1  0.92583411  0.08508934  0.93973568  1
  C  C368  1  0.82675673  0.02072356  0.76954900  1
  C  C369  1  0.93098560  0.14206079  0.89214526  1
  H  H370  1  0.86834872  0.13389440  0.78545174  1
  C  C371  1  0.88645628  0.10078188  0.77118606  1
  H  H372  1  0.96018488  0.19537739  0.84857063  1
  H  H373  1  0.63021371  0.22295303  0.95423434  1
  C  C374  1  0.58487070  0.11384658  0.81750406  1
  H  H375  1  0.58424292  0.13410631  0.79156321  1
  C  C376  1  0.99078848  0.06576599  0.90676786  1
  H  H377  1  0.75301198  0.01138081  0.85299235  1
  C  C378  1  0.69953195  0.24243817  0.83465705  1
  H  H379  1  0.57146013  0.02908548  0.90961800  1
  C  C380  1  0.56622138  0.05222643  0.88440035  1
  O  O381  1  0.67021284  0.22366211  0.75819381  1
  C  C382  1  0.50768695  0.43567754  0.76380095  1
  C  C383  1  0.64519212  0.32753038  0.86409396  1
  O  O384  1  0.67135558  0.38542778  0.91027326  1
  C  C385  1  0.63906895  0.27641302  0.81173628  1
  C  C386  1  0.70945159  0.25130735  0.87548043  1
  Cu  Cu387  1  0.86318670  0.42573846  0.92338221  1
  C  C388  1  0.71105274  0.48895123  0.97844610  1
  O  O389  1  0.56893018  0.39937503  0.85076254  1
  H  H390  1  0.68602540  0.30092876  0.92158733  1
  Cu  Cu391  1  0.80854980  0.44374828  0.81295692  1
  C  C392  1  0.63186237  0.32035922  0.82411038  1
  C  C393  1  0.62656071  0.37305210  0.87627799  1
  C  C394  1  0.68319226  0.29348305  0.88924174  1
  O  O395  1  0.92343928  0.43714782  0.76710824  1
  O  O396  1  0.71078893  0.46877821  0.94484298  1
  H  H397  1  0.60431747  0.34542683  0.80289754  1
  O  O398  1  0.59290149  0.46214250  0.78489384  1
  C  C399  1  0.61221476  0.26305599  0.76826082  1
  C  C400  1  0.70415489  0.70621238  0.12700624  1
  C  C401  1  0.78750686  0.73828867  0.10357591  1
  C  C402  1  0.83477104  0.72977135  0.06332522  1
  C  C403  1  0.65829924  0.66547669  0.11028884  1
  C  C404  1  0.69415819  0.65863656  0.06781247  1
  C  C405  1  0.78678299  0.68966880  0.04410906  1
  C  C406  1  0.84093649  0.53345700  0.19260509  1
  C  C407  1  0.85086105  0.56214104  0.22484312  1
  H  H408  1  0.67201497  0.71031239  0.15748379  1
  C  C409  1  0.67164046  0.55744246  0.01755935  1
  H  H410  1  0.70550253  0.53685612  0.04432959  1
  H  H411  1  0.82273332  0.68288060  0.01301054  1
  C  C412  1  0.61549604  0.60089181  0.02053460  1
  N  N413  1  0.62186164  0.61814108  0.05927491  1
  C  C414  1  0.86768905  0.51865832  0.11754797  1
  C  C415  1  0.89375295  0.54478050  0.15231312  1
  C  C416  1  0.57092160  0.62524244  0.12546663  1
  C  C417  1  0.54396744  0.59696366  0.09132116  1
  H  H418  1  0.94255071  0.51362606  0.05470026  1
  H  H419  1  0.52812653  0.62590903  0.18870584  1
  H  H420  1  0.88871227  0.59693375  0.22115196  1
  C  C421  1  0.97483271  0.58761510  0.15210665  1
  C  C422  1  0.94110460  0.53409471  0.08274850  1
  H  H423  1  0.98546652  0.60761698  0.17875718  1
  C  C424  1  0.51528119  0.60609511  0.16153286  1
  H  H425  1  0.90302365  0.75460875  0.04656204  1
  C  C426  1  0.90586215  0.86378321  0.15249015  1
  O  O427  1  0.74858992  0.81699499  0.24271325  1
  Cu  Cu428  1  0.73215206  0.93447730  0.09761605  1
  O  O429  1  0.80891391  0.88467163  0.22354155  1
  C  C430  1  0.63952078  0.96381149  0.01832151  1
  C  C431  1  0.79417507  0.84327115  0.21657370  1
  H  H432  1  0.70004263  0.76537955  0.17746847  1
  C  C433  1  0.78647833  0.78908861  0.16267633  1
  O  O434  1  0.57270732  0.90054233  0.12291589  1
  C  C435  1  0.84654862  0.78125133  0.12374545  1
  O  O436  1  0.98137718  0.92934665  0.10470430  1
  C  C437  1  0.95806483  0.85394453  0.11387153  1
  H  H438  1  0.91951649  0.89954920  0.16376436  1
  O  O439  1  0.56120256  0.95091483  0.05245872  1
  C  C440  1  0.94815405  0.81011192  0.10178542  1
  C  C441  1  0.83188293  0.83141386  0.17632511  1
  C  C442  1  0.72448125  0.62255023  0.46650566  1
  C  C443  1  0.68974132  0.66706199  0.45648494  1
  H  H444  1  0.67508794  0.67728268  0.42535101  1
  C  C445  1  0.73675914  0.59332956  0.43193674  1
  O  O446  1  0.76337304  0.55557014  0.43839894  1
  C  C447  1  0.68804295  0.69701920  0.48650795  1
  O  O448  1  0.71616318  0.61039462  0.39666913  1
  C  C449  1  0.81832917  0.54372818  0.26105205  1
  C  C450  1  0.83984048  0.57500222  0.29406000  1
  Cu  Cu451  1  0.54826095  0.60054212  0.35552768  1
  C  C452  1  0.66704469  0.74445075  0.47790709  1
  O  O453  1  0.85727444  0.61247567  0.28556781  1
  O  O454  1  0.81639441  0.56187836  0.33025135  1
  C  C455  1  0.76097204  0.50111114  0.26930087  1
  O  O456  1  0.63042407  0.75529471  0.44356367  1
  Cu  Cu457  1  0.92132370  0.80210990  0.49510319  1
  C  C458  1  0.94296996  0.96001607  0.43301623  1
  C  C459  1  0.89793498  0.91521427  0.42879391  1
  O  O460  1  0.96252950  0.90435679  0.49541474  1
  C  C461  1  0.87176039  0.89686437  0.39164492  1
  C  C462  1  0.82837922  0.90736242  0.32085462  1
  C  C463  1  0.91405307  0.88879471  0.46495846  1
  H  H464  1  0.52021064  0.94005513  0.40536339  1
  Cu  Cu465  1  0.61235291  0.83271044  0.28824136  1
  O  O466  1  0.80826415  0.93292399  0.29230986  1
  Cu  Cu467  1  0.52979452  0.80710662  0.42047732  1
  O  O468  1  0.88362867  0.84687877  0.45974226  1
  O  O469  1  0.80833640  0.86678097  0.31453628  1
  C  C470  1  0.87120287  0.92377960  0.35934440  1
  C  C471  1  0.90249463  0.96912269  0.36361751  1
  H  H472  1  0.84721233  0.86198824  0.38837971  1
  C  C473  1  0.93980235  0.98653892  0.40003387  1
  H  H474  1  0.98003066  0.97452173  0.46205083  1
  H  H475  1  0.89612781  0.99016962  0.33862752  1
  Cu  Cu476  1  0.95383131  0.91615280  0.25418572  1
  C  C477  1  0.79546469  0.65157841  0.60581032  1
  C  C478  1  0.79682049  0.62492884  0.64243512  1
  C  C479  1  0.85556190  0.64519817  0.67675517  1
  N  N480  1  0.71832631  0.62665142  0.57732516  1
  C  C481  1  0.71091914  0.63970931  0.53743240  1
  C  C482  1  0.71757245  0.58252707  0.63115371  1
  C  C483  1  0.72003573  0.68369977  0.52500400  1
  H  H484  1  0.71188425  0.71230348  0.54410508  1
  C  C485  1  0.64412136  0.58675977  0.59076847  1
  C  C486  1  0.66370509  0.54699222  0.65463106  1
  H  H487  1  0.84118906  0.62956935  0.70716111  1
  H  H488  1  0.68738260  0.54357436  0.68693891  1
  C  C489  1  0.88683192  0.69353080  0.60401823  1
  H  H490  1  0.73564343  0.57452528  0.51207856  1
  C  C491  1  0.91439582  0.68927664  0.67498525  1
  C  C492  1  0.72528074  0.60948975  0.50562912  1
  C  C493  1  0.54004538  0.55431828  0.57135472  1
  C  C494  1  0.55591365  0.51544747  0.63324715  1
  H  H495  1  0.91776263  0.50465691  0.55915732  1
  C  C496  1  0.50233648  0.68029924  0.71674624  1
  H  H497  1  0.90264407  0.71031091  0.57540636  1
  C  C498  1  0.94519764  0.71186418  0.63833113  1
  C  C499  1  0.96733712  0.71397840  0.71098034  1
  C  C500  1  0.99596720  0.68848150  0.74503285  1
  H  H501  1  0.98042498  0.65389098  0.74771927  1
  H  H502  1  0.56557969  0.50618000  0.71669168  1
  C  C503  1  0.57853043  0.81376121  0.74564217  1
  O  O504  1  0.63460689  0.83964805  0.72095503  1
  O  O505  1  0.99510958  0.85187064  0.71866157  1
  O  O506  1  0.71689610  0.77151542  0.50368256  1
  H  H507  1  0.50181007  0.78456814  0.67710241  1
  O  O508  1  0.57158826  0.92484565  0.72456912  1
  O  O509  1  0.93751830  0.94179649  0.73815873  1
  C  C510  1  0.51093685  0.75890037  0.69872075  1
  C  C511  1  0.55969091  0.76845672  0.73668237  1
  H  H512  1  0.51932309  0.75560145  0.61388959  1
  H  H513  1  0.94648734  0.78026225  0.68577058  1
  Cu  Cu514  1  0.78894625  0.89009227  0.72475305  1
  C  C515  1  0.96929702  0.97506347  0.71821212  1
  C  C516  1  0.97885187  0.75929226  0.71033977  1
  Cu  Cu517  1  0.82466912  0.63429786  0.85008886  1
  C  C518  1  0.62048432  0.55756080  0.94615438  1
  C  C519  1  0.66845554  0.53673648  0.98069210  1
  O  O520  1  0.64448832  0.66611084  0.82033803  1
  C  C521  1  0.58136115  0.62517684  0.98477587  1
  H  H522  1  0.61469579  0.53751136  0.91961316  1
  C  C523  1  0.58947674  0.60283067  0.94999938  1
  C  C524  1  0.58496213  0.73567965  0.76454143  1
  C  C525  1  0.60175561  0.65733681  0.78431166  1
  O  O526  1  0.62165683  0.61220067  0.88145180  1
  C  C527  1  0.55942637  0.62745019  0.91268733  1
  O  O528  1  0.58256290  0.62117251  0.77244108  1
  H  H529  1  0.53657239  0.65977931  0.98640405  1
  C  C530  1  0.55499559  0.69222431  0.75390081  1
  H  H531  1  0.62957683  0.74412687  0.79432950  1
  O  O532  1  0.64499149  0.93979916  0.99147493  1
  H  H533  1  0.75174095  0.99225415  0.78069797  1
  O  O534  1  0.52703519  0.82905784  0.77849186  1
  H  H535  1  0.79111034  0.99810001  0.95343817  1
