# generated using pymatgen
data_Zn3H18(C14O5)2
_symmetry_space_group_name_H-M   'P 1'
_cell_length_a   42.38910635
_cell_length_b   32.91558476
_cell_length_c   4.82108081
_cell_angle_alpha   90.00000000
_cell_angle_beta   90.00000000
_cell_angle_gamma   90.00000000
_symmetry_Int_Tables_number   1
_chemical_formula_structural   Zn3H18(C14O5)2
_chemical_formula_sum   'Zn24 H144 C224 O80'
_cell_volume   6726.67192419
_cell_formula_units_Z   8
loop_
 _symmetry_equiv_pos_site_id
 _symmetry_equiv_pos_as_xyz
  1  'x, y, z'
loop_
 _atom_site_type_symbol
 _atom_site_label
 _atom_site_symmetry_multiplicity
 _atom_site_fract_x
 _atom_site_fract_y
 _atom_site_fract_z
 _atom_site_occupancy
  H  H0  1  0.20294996  0.10684011  0.32062603  1
  C  C1  1  0.22536092  0.11976222  0.23317499  1
  C  C2  1  0.22452590  0.15136052  0.03629785  1
  O  O3  1  0.14402993  0.03173118  0.00863214  1
  C  C4  1  0.14896663  0.05825480  0.16288295  1
  O  O5  1  0.15596090  0.08550827  0.31109349  1
  O  O6  1  0.18039061  0.23084599  0.41734468  1
  C  C7  1  0.18841585  0.20026868  0.41985246  1
  H  H8  1  0.21630513  0.01982430  0.05359733  1
  C  C9  1  0.23359453  0.05853441  0.72829029  1
  H  H10  1  0.22630424  0.08572955  0.83510956  1
  C  C11  1  0.22824275  0.02139219  0.85621673  1
  H  H12  1  0.20188914  0.16462646  0.96504286  1
  O  O13  1  0.21090513  0.56435022  0.33131131  1
  H  H14  1  0.19479084  0.69121388  0.16009048  1
  H  H15  1  0.15463696  0.57785522  0.26480345  1
  C  C16  1  0.04123898  0.65232673  0.28305018  1
  C  C17  1  0.02914927  0.53185137  0.17440778  1
  C  C18  1  0.09844672  0.66095549  0.37273526  1
  C  C19  1  0.00944493  0.65257481  0.34751100  1
  H  H20  1  0.23481911  0.63738536  0.10882344  1
  C  C21  1  0.06097819  0.52946794  0.10610056  1
  C  C22  1  0.16414537  0.64484075  0.27906200  1
  H  H23  1  0.18794339  0.63479622  0.24729592  1
  C  C24  1  0.10817215  0.64112580  0.12139751  1
  H  H25  1  0.07604061  0.51063987  0.22141887  1
  H  H26  1  0.15703080  0.71899503  0.16515760  1
  H  H27  1  0.10052352  0.57742573  0.39157938  1
  H  H28  1  0.02120700  0.51506581  0.35565012  1
  H  H29  1  0.21595931  0.74355219  0.34276995  1
  H  H30  1  0.04979439  0.63787137  0.09635007  1
  C  C31  1  0.01001598  0.55851012  0.02019836  1
  H  H32  1  0.12388922  0.51832950  0.17727316  1
  C  C33  1  0.14879990  0.56363056  0.46538044  1
  H  H34  1  0.18162585  0.51745107  0.01520665  1
  C  C35  1  0.06504335  0.67069076  0.44930289  1
  C  C36  1  0.24407542  0.69431699  0.49175954  1
  C  C37  1  0.15802947  0.74933314  0.06827657  1
  C  C38  1  0.14103652  0.63628947  0.07730771  1
  O  O39  1  0.07023722  0.94064613  0.41854194  1
  O  O40  1  0.16897352  0.90084290  0.49567654  1
  Zn  Zn41  1  0.21185673  0.89295985  0.31610227  1
  C  C42  1  0.13858897  0.78059642  0.14766301  1
  C  C43  1  0.12103212  0.85332218  0.07233690  1
  O  O44  1  0.10313354  0.85273985  0.27585022  1
  H  H45  1  0.12123966  0.77746930  0.32287811  1
  H  H46  1  0.06009211  0.93411072  0.24986114  1
  O  O47  1  0.21751546  0.82914647  0.24319703  1
  H  H48  1  0.20397622  0.81519548  0.11208427  1
  H  H49  1  0.13786492  0.99551862  0.38071057  1
  O  O50  1  0.21609781  0.93846277  0.02306442  1
  C  C51  1  0.07240728  0.55302531  0.87281847  1
  C  C52  1  0.16209691  0.52978436  0.89571247  1
  C  C53  1  0.10703318  0.54826431  0.79038732  1
  C  C54  1  0.05321801  0.57934022  0.71798716  1
  H  H55  1  0.07059048  0.70967917  0.81369428  1
  C  C56  1  0.02091625  0.58232774  0.79302342  1
  C  C57  1  0.17160509  0.54695840  0.63793058  1
  C  C58  1  0.02189293  0.69346206  0.75524172  1
  C  C59  1  0.05343070  0.69269103  0.68520760  1
  H  H60  1  0.11531938  0.69754144  0.72509849  1
  C  C61  1  0.23094258  0.66105818  0.94583486  1
  C  C62  1  0.20227136  0.72208034  0.77127347  1
  H  H63  1  0.06167753  0.59560427  0.53170727  1
  O  O64  1  0.22450896  0.52929490  0.70376077  1
  C  C65  1  0.11722004  0.56357429  0.53262061  1
  H  H66  1  0.16946339  0.67656267  0.68172717  1
  C  C67  1  0.21939357  0.72172389  0.51037195  1
  H  H68  1  0.01455015  0.70780226  0.94949317  1
  C  C69  1  0.20393964  0.54691211  0.55520301  1
  H  H70  1  0.00492763  0.60114152  0.67088127  1
  H  H71  1  0.15098847  0.61878800  0.90252416  1
  H  H72  1  0.09218789  0.63159906  0.95852841  1
  C  C73  1  0.24753822  0.66403206  0.68999064  1
  C  C74  1  0.20828801  0.69085820  0.96954036  1
  C  C75  1  0.13077090  0.53179809  0.97604540  1
  C  C76  1  0.12258808  0.67826309  0.55325051  1
  C  C77  1  0.15420695  0.66884072  0.50977669  1
  O  O78  1  0.12340331  0.88543682  0.93141398  1
  O  O79  1  0.24497345  0.91251618  0.67735497  1
  C  C80  1  0.23166232  0.94301940  0.79771107  1
  C  C81  1  0.17969136  0.79163297  0.68200276  1
  H  H82  1  0.17709455  0.92249214  0.61194973  1
  H  H83  1  0.14312678  0.99705636  0.69835156  1
  C  C84  1  0.15881126  0.82078063  0.75567330  1
  H  H85  1  0.05584299  0.92782080  0.55888597  1
  O  O86  1  0.13501448  0.98140331  0.54662821  1
  H  H87  1  0.16010678  0.85004152  0.63589140  1
  C  C88  1  0.00955060  0.93273991  0.97162917  1
  C  C89  1  0.17893842  0.75516607  0.84009281  1
  O  O90  1  0.02615363  0.90617711  0.90512536  1
  C  C91  1  0.23853112  0.98445951  0.71879330  1
  C  C92  1  0.14001358  0.81807841  0.99896719  1
  H  H93  1  0.19594827  0.79631438  0.51342363  1
  Zn  Zn94  1  0.11880245  0.90980044  0.51469969  1
  H  H95  1  0.42930984  0.03701910  0.14791175  1
  C  C96  1  0.28201524  0.10230300  0.14578679  1
  H  H97  1  0.30256580  0.08348843  0.20434011  1
  H  H98  1  0.33867153  0.20097222  0.20891406  1
  H  H99  1  0.27679533  0.02760976  0.14255768  1
  C  C100  1  0.33977162  0.17559959  0.36284794  1
  H  H101  1  0.38801102  0.15435300  0.25950375  1
  C  C102  1  0.26464423  0.02456740  0.34384151  1
  H  H103  1  0.42750716  0.13515474  0.37940495  1
  O  O104  1  0.48874654  0.02778120  0.12493271  1
  C  C105  1  0.36606731  0.14742229  0.38174944  1
  C  C106  1  0.25054987  0.05947080  0.47028497  1
  O  O107  1  0.42856284  0.16997775  0.06183841  1
  C  C108  1  0.25319231  0.09673862  0.27986213  1
  H  H109  1  0.47639726  0.09869290  0.46133299  1
  C  C110  1  0.28936156  0.26798169  0.09869506  1
  O  O111  1  0.26311834  0.25896488  0.15174435  1
  O  O112  1  0.31550384  0.27658974  0.06680448  1
  C  C113  1  0.36644256  0.11993021  0.60606777  1
  C  C114  1  0.45717878  0.06602386  0.81803150  1
  C  C115  1  0.39763105  0.09704309  0.63991676  1
  C  C116  1  0.45599169  0.09118460  0.57996399  1
  C  C117  1  0.31339097  0.13805796  0.77668468  1
  C  C118  1  0.34084457  0.11277789  0.79139994  1
  Zn  Zn119  1  0.27186612  0.19355369  0.59395666  1
  C  C120  1  0.42642928  0.10822324  0.51574895  1
  C  C121  1  0.31462207  0.16795530  0.55071306  1
  C  C122  1  0.48674346  0.04614524  0.90118197  1
  C  C123  1  0.40074423  0.06986180  0.86691148  1
  C  C124  1  0.28110696  0.13309266  0.94013183  1
  H  H125  1  0.34385458  0.08954568  0.93991805  1
  C  C126  1  0.25326371  0.15664813  0.89615685  1
  H  H127  1  0.43113704  0.15625842  0.88837045  1
  H  H128  1  0.38027259  0.06043090  0.97254552  1
  H  H129  1  0.43944198  0.19463593  0.99927695  1
  C  C130  1  0.42919166  0.05500398  0.95884168  1
  C  C131  1  0.46275258  0.56949328  0.18252697  1
  H  H132  1  0.47647016  0.64878114  0.24081492  1
  H  H133  1  0.44013631  0.72122613  0.17034590  1
  C  C134  1  0.41064483  0.59631052  0.25982396  1
  C  C135  1  0.39168900  0.70332729  0.28601214  1
  C  C136  1  0.44161746  0.59193048  0.34784711  1
  C  C137  1  0.42508914  0.70593122  0.32550628  1
  H  H138  1  0.39357811  0.61337186  0.38139203  1
  O  O139  1  0.28384916  0.54106567  0.33813572  1
  H  H140  1  0.38155643  0.72061477  0.10275108  1
  H  H141  1  0.26683788  0.53839088  0.47636469  1
  H  H142  1  0.26029433  0.69719268  0.30356739  1
  O  O143  1  0.29193319  0.63993757  0.45071797  1
  C  C144  1  0.49545915  0.56489481  0.30395845  1
  C  C145  1  0.48977108  0.66426804  0.40972438  1
  O  O146  1  0.34807083  0.59620612  0.10481449  1
  Zn  Zn147  1  0.25078680  0.55180468  0.06007888  1
  C  C148  1  0.39944983  0.57454150  0.02347132  1
  C  C149  1  0.37208046  0.68365109  0.47881884  1
  H  H150  1  0.48123898  0.71552098  0.02149218  1
  Zn  Zn151  1  0.32557542  0.68135087  0.48722241  1
  Zn  Zn152  1  0.32177419  0.57490488  0.47884983  1
  O  O153  1  0.32097781  0.86995985  0.41699411  1
  O  O154  1  0.29092917  0.75720137  0.15551836  1
  H  H155  1  0.47797195  0.96054107  0.28172300  1
  H  H156  1  0.26451381  0.95797105  0.38615917  1
  H  H157  1  0.39038828  0.81871143  0.41794300  1
  C  C158  1  0.41748652  0.92970298  0.23989429  1
  C  C159  1  0.45019980  0.82235656  0.30698617  1
  Zn  Zn160  1  0.25555871  0.79761098  0.18874109  1
  C  C161  1  0.25754083  0.98782866  0.47714567  1
  C  C162  1  0.38526202  0.92706527  0.18494653  1
  C  C163  1  0.43854143  0.79824364  0.08583839  1
  H  H164  1  0.43268460  0.94605171  0.08788946  1
  C  C165  1  0.36753973  0.90028174  0.34432727  1
  C  C166  1  0.33447058  0.89293183  0.25661530  1
  H  H167  1  0.43406335  0.83907907  0.45737528  1
  H  H168  1  0.33501838  0.79494988  0.37890221  1
  C  C169  1  0.35255981  0.78736366  0.22405134  1
  C  C170  1  0.38318423  0.79946630  0.24686981  1
  C  C171  1  0.48133116  0.82385156  0.36928929  1
  H  H172  1  0.37539384  0.94353647  0.01581163  1
  O  O173  1  0.32296835  0.91274621  0.05694607  1
  C  C174  1  0.43108145  0.91248770  0.48004229  1
  C  C175  1  0.40536028  0.78827900  0.02734468  1
  C  C176  1  0.48662245  0.94077926  0.44824172  1
  C  C177  1  0.41833014  0.66907613  0.76967060  1
  C  C178  1  0.38557395  0.66502394  0.72467338  1
  H  H179  1  0.41142920  0.53416260  0.68271985  1
  H  H180  1  0.46619949  0.52778754  0.81306431  1
  C  C181  1  0.41899710  0.55042284  0.86608114  1
  C  C182  1  0.49199178  0.70302418  0.84285654  1
  O  O183  1  0.35636879  0.55702854  0.73075152  1
  C  C184  1  0.27292945  0.63167814  0.65652801  1
  H  H185  1  0.49084406  0.60813398  0.67470081  1
  O  O186  1  0.27780998  0.59873459  0.78143686  1
  H  H187  1  0.36916445  0.64965099  0.88118622  1
  H  H188  1  0.42894415  0.65599812  0.95745290  1
  O  O189  1  0.30062498  0.73251519  0.74250610  1
  C  C190  1  0.47388278  0.68838187  0.61428842  1
  C  C191  1  0.43782369  0.68988317  0.56851790  1
  H  H192  1  0.44803083  0.60694369  0.54357819  1
  C  C193  1  0.45095318  0.54905487  0.94158447  1
  H  H194  1  0.35551198  0.74216505  0.57908449  1
  C  C195  1  0.36591364  0.57639090  0.94402640  1
  C  C196  1  0.47266296  0.89194996  0.82288012  1
  C  C197  1  0.31021002  0.75044701  0.95543246  1
  C  C198  1  0.39529160  0.76675342  0.78861080  1
  Zn  Zn199  1  0.29028951  0.88685153  0.78168839  1
  C  C200  1  0.49357994  0.78440548  0.94073596  1
  H  H201  1  0.48839865  0.84006619  0.56436128  1
  O  O202  1  0.27405746  0.83080414  0.85900023  1
  H  H203  1  0.41857656  0.87602834  0.86949151  1
  C  C204  1  0.46170952  0.78242604  0.89747415  1
  H  H205  1  0.36504572  0.86273364  0.72365947  1
  H  H206  1  0.45091615  0.76492170  0.72607358  1
  H  H207  1  0.29072380  0.81245299  0.88046728  1
  C  C208  1  0.34345466  0.76431357  0.98998561  1
  C  C209  1  0.46470275  0.91564997  0.58631348  1
  C  C210  1  0.37970829  0.88253918  0.58694186  1
  C  C211  1  0.41121076  0.88955727  0.66002080  1
  C  C212  1  0.36363256  0.75544461  0.77283220  1
  H  H213  1  0.41208901  0.76043256  0.61773045  1
  H  H214  1  0.45554500  0.87336014  0.93227699  1
  H  H215  1  0.72268465  0.09220310  0.36063928  1
  C  C216  1  0.71994487  0.19359749  0.37122361  1
  O  O217  1  0.51811889  0.14567396  0.18273835  1
  C  C218  1  0.67729314  0.13914672  0.27091242  1
  C  C219  1  0.70728808  0.16111192  0.20205593  1
  C  C220  1  0.63287631  0.09284890  0.16075229  1
  H  H221  1  0.72768599  0.01528507  0.22194686  1
  O  O222  1  0.57319945  0.06335805  0.32215320  1
  C  C223  1  0.74658691  0.21422081  0.29717231  1
  C  C224  1  0.61479884  0.24132531  0.20427966  1
  H  H225  1  0.68435893  0.07171776  0.49667341  1
  C  C226  1  0.74464179  0.08369802  0.47156767  1
  C  C227  1  0.55933675  0.19885334  0.28827819  1
  C  C228  1  0.61917300  0.10240734  0.41165021  1
  C  C229  1  0.67989941  0.00461027  0.16519034  1
  C  C230  1  0.57685187  0.19016307  0.04039664  1
  C  C231  1  0.66203203  0.11028480  0.11182381  1
  Zn  Zn232  1  0.53016347  0.03487098  0.37015631  1
  C  C233  1  0.53223120  0.17000120  0.34967407  1
  H  H234  1  0.62359198  0.06867631  0.02259848  1
  C  C235  1  0.56741777  0.22971513  0.47939541  1
  C  C236  1  0.58683212  0.08657388  0.49257852  1
  C  C237  1  0.70787027  0.02204987  0.08290769  1
  C  C238  1  0.60501748  0.21004961  0.00759052  1
  C  C239  1  0.59549331  0.25188603  0.42706698  1
  C  C240  1  0.64546438  0.26161282  0.11915227  1
  C  C241  1  0.65740909  0.29224596  0.29167593  1
  C  C242  1  0.70953910  0.29534711  0.03377545  1
  C  C243  1  0.68778512  0.31091491  0.26456102  1
  H  H244  1  0.64141471  0.30275791  0.46522301  1
  O  O245  1  0.69817976  0.33852366  0.40584859  1
  H  H246  1  0.71173172  0.12652977  0.81132735  1
  H  H247  1  0.62165709  0.13884905  0.78875408  1
  O  O248  1  0.51310651  0.05572959  0.76562503  1
  O  O249  1  0.57546283  0.09519484  0.72388938  1
  H  H250  1  0.55305393  0.23366928  0.67305012  1
  C  C251  1  0.65493266  0.03259516  0.73549202  1
  C  C252  1  0.71206185  0.04612407  0.84451765  1
  H  H253  1  0.67007324  0.17031247  0.67707141  1
  O  O254  1  0.52259701  0.17040964  0.59058394  1
  C  C255  1  0.74186773  0.06081557  0.71951107  1
  H  H256  1  0.67585653  0.10364586  0.91286670  1
  H  H257  1  0.66126546  0.21594091  0.81583134  1
  Zn  Zn258  1  0.53130450  0.11526863  0.83646459  1
  C  C259  1  0.72143766  0.15155288  0.94398322  1
  H  H260  1  0.62066651  0.20349475  0.82850039  1
  C  C261  1  0.65380692  0.00961333  0.98080822  1
  H  H262  1  0.63481554  0.03900976  0.60633204  1
  C  C263  1  0.68391789  0.05066222  0.67897280  1
  C  C264  1  0.63198896  0.13052773  0.59051522  1
  C  C265  1  0.74892230  0.17198916  0.87290356  1
  C  C266  1  0.66750700  0.24324133  0.92669267  1
  H  H267  1  0.57038480  0.16344693  0.91085632  1
  H  H268  1  0.70907495  0.19895249  0.57764826  1
  C  C269  1  0.66165466  0.14772218  0.53119162  1
  H  H270  1  0.71087712  0.24756257  0.74095778  1
  C  C271  1  0.65060344  0.46309934  0.60465135  1
  O  O272  1  0.74314966  0.40581355  0.65820660  1
  Zn  Zn273  1  0.73497376  0.45179017  0.93298101  1
  O  O274  1  0.64263980  0.49202246  0.66928437  1
  H  H275  1  0.60278976  0.27149824  0.60546588  1
  C  C276  1  0.69535320  0.26198740  0.89292879  1
  Zn  Zn277  1  0.74631045  0.34841306  0.61835946  1
  O  O278  1  0.73535250  0.30721946  0.95770384  1
  O  O279  1  0.65927858  0.70511885  0.16994156  1
  Zn  Zn280  1  0.61910968  0.66731302  0.10148067  1
  H  H281  1  0.53577881  0.64009554  0.26364715  1
  H  H282  1  0.73592158  0.65252499  0.23387778  1
  H  H283  1  0.68207492  0.62913484  0.12606195  1
  C  C284  1  0.51495842  0.53596355  0.16967557  1
  C  C285  1  0.71173795  0.53503771  0.35026945  1
  C  C286  1  0.52238281  0.65800732  0.40902324  1
  C  C287  1  0.73195547  0.57032589  0.37279499  1
  C  C288  1  0.72182858  0.50210602  0.18080804  1
  C  C289  1  0.54612013  0.52901529  0.27269205  1
  H  H290  1  0.68959322  0.53446484  0.45562635  1
  H  H291  1  0.62462592  0.60190090  0.15778841  1
  C  C292  1  0.72396904  0.64785972  0.43208069  1
  H  H293  1  0.56270121  0.50753455  0.17132867  1
  H  H294  1  0.50680294  0.51701398  0.01363086  1
  C  C295  1  0.55830352  0.55399369  0.48396819  1
  O  O296  1  0.58787601  0.64992435  0.45014772  1
  H  H297  1  0.71386467  0.71308167  0.47201605  1
  C  C298  1  0.69462128  0.83774210  0.27242447  1
  O  O299  1  0.53973277  0.96743980  0.43997692  1
  Zn  Zn300  1  0.65879276  0.76251590  0.42662380  1
  O  O301  1  0.67903846  0.82424399  0.48536186  1
  H  H302  1  0.67979271  0.98549581  0.36081357  1
  H  H303  1  0.61112567  0.79156466  0.30251591  1
  O  O304  1  0.61986004  0.96728467  0.24779937  1
  C  C305  1  0.73284461  0.78172754  0.32987877  1
  O  O306  1  0.68356331  0.86959378  0.15600107  1
  C  C307  1  0.62311830  0.98974744  0.03406453  1
  O  O308  1  0.55705623  0.78302209  0.11565705  1
  H  H309  1  0.50937645  0.87349369  0.08380559  1
  C  C310  1  0.72238447  0.81691628  0.16813659  1
  C  C311  1  0.50362634  0.80283366  0.19175834  1
  C  C312  1  0.53751000  0.80437674  0.25420890  1
  O  O313  1  0.61455566  0.77757750  0.47116901  1
  O  O314  1  0.54699969  0.82448351  0.46086791  1
  H  H315  1  0.59702688  0.85403504  0.01517602  1
  C  C316  1  0.69060717  0.67398690  0.79921046  1
  C  C317  1  0.57422366  0.67389034  0.61432986  1
  C  C318  1  0.53882468  0.67924648  0.61753958  1
  Zn  Zn319  1  0.58331767  0.58139344  0.77189544  1
  C  C320  1  0.70853309  0.68097559  0.55114803  1
  O  O321  1  0.67629427  0.74461224  0.84757657  1
  C  C322  1  0.53831580  0.58034039  0.61449090  1
  C  C323  1  0.52515786  0.70066579  0.83669665  1
  C  C324  1  0.70619023  0.60072650  0.79910658  1
  H  H325  1  0.70994727  0.57130186  0.91478016  1
  O  O326  1  0.58754067  0.69006423  0.81223664  1
  C  C327  1  0.69112418  0.63438115  0.91481294  1
  C  C328  1  0.67509110  0.70913687  0.94724103  1
  C  C329  1  0.72046358  0.60608831  0.53911518  1
  C  C330  1  0.50618843  0.58543756  0.55840316  1
  O  O331  1  0.62291799  0.60760353  0.96063649  1
  H  H332  1  0.53961461  0.71510695  0.99520521  1
  C  C333  1  0.50316148  0.89358466  0.90237578  1
  H  H334  1  0.71986737  0.77692646  0.51866976  1
  Zn  Zn335  1  0.65662663  0.86949754  0.78765425  1
  H  H336  1  0.51157131  0.77181346  0.80093991  1
  O  O337  1  0.68904697  0.93820664  0.69104054  1
  O  O338  1  0.61577910  0.83788772  0.99061721  1
  H  H339  1  0.71047498  0.94471533  0.65355019  1
  O  O340  1  0.60080271  0.99627481  0.86808648  1
  Zn  Zn341  1  0.58675924  0.94584812  0.60361629  1
  O  O342  1  0.62376758  0.90170553  0.58934903  1
  C  C343  1  0.51865639  0.94364207  0.53434174  1
  H  H344  1  0.68490334  0.95683070  0.83330345  1
  H  H345  1  0.72831764  0.85611627  0.79729817  1
  O  O346  1  0.55585321  0.90999103  0.85180158  1
  C  C347  1  0.52838533  0.91691520  0.77542634  1
  Zn  Zn348  1  0.58370438  0.80117677  0.77472745  1
  C  C349  1  0.73680820  0.83026426  0.91993274  1
  H  H350  1  0.64029078  0.91715245  0.50060359  1
  C  C351  1  0.77287012  0.09621291  0.37997677  1
  O  O352  1  0.83188994  0.11260580  0.17953519  1
  H  H353  1  0.77541557  0.10994009  0.17461001  1
  C  C354  1  0.76077401  0.20431293  0.03394141  1
  C  C355  1  0.83206624  0.09367470  0.41073565  1
  H  H356  1  0.75796836  0.23647470  0.43845409  1
  H  H357  1  0.96781126  0.04523975  0.45200592  1
  H  H358  1  0.89964271  0.03361166  0.13590694  1
  H  H359  1  0.76785779  0.02738293  0.04944011  1
  O  O360  1  0.80331791  0.41892719  0.21881837  1
  C  C361  1  0.87058323  0.35634864  0.39406512  1
  C  C362  1  0.88740110  0.45832823  0.04616613  1
  C  C363  1  0.88865395  0.33006948  0.22503236  1
  C  C364  1  0.80612198  0.42091246  0.00093093  1
  C  C365  1  0.88911878  0.28573502  0.27408218  1
  O  O366  1  0.79709284  0.25688972  0.12607796  1
  C  C367  1  0.86956331  0.39739250  0.32464328  1
  O  O368  1  0.90584329  0.26439323  0.11735735  1
  C  C369  1  0.86803782  0.48407356  0.20961649  1
  Zn  Zn370  1  0.82103738  0.27428219  0.49029483  1
  C  C371  1  0.88644100  0.41338483  0.08889260  1
  H  H372  1  0.85560076  0.46987158  0.38487293  1
  O  O373  1  0.87108267  0.27012611  0.47168075  1
  O  O374  1  0.97780285  0.46001148  0.44286394  1
  H  H375  1  0.85619599  0.41904425  0.45475677  1
  C  C376  1  0.93463881  0.04195248  0.79606064  1
  C  C377  1  0.76924689  0.04878384  0.87314779  1
  C  C378  1  0.79906765  0.05748909  0.76844802  1
  O  O379  1  0.93829881  0.19664059  0.66629319  1
  H  H380  1  0.93962045  0.16648706  0.66699209  1
  O  O381  1  0.80208442  0.22111801  0.73392238  1
  C  C382  1  0.93627976  0.08859601  0.81618024  1
  H  H383  1  0.76574584  0.16208760  0.70924200  1
  C  C384  1  0.78857795  0.22884647  0.96455472  1
  H  H385  1  0.82038064  0.04736297  0.86788135  1
  C  C386  1  0.91458348  0.01983980  0.97352336  1
  H  H387  1  0.84600598  0.18286027  0.91515560  1
  Zn  Zn388  1  0.86857660  0.11402784  0.92511550  1
  Zn  Zn389  1  0.88821657  0.23189583  0.78691674  1
  O  O390  1  0.86664868  0.17763561  0.84820050  1
  O  O391  1  0.95284105  0.10664111  0.65461160  1
  H  H392  1  0.95441602  0.20201014  0.78811931  1
  O  O393  1  0.85696053  0.08554766  0.53224660  1
  C  C394  1  0.80026188  0.08136643  0.52455085  1
  O  O395  1  0.91716108  0.10684771  0.98116837  1
  C  C396  1  0.95210357  0.02654881  0.57409365  1
  C  C397  1  0.95981047  0.44122074  0.52930582  1
  H  H398  1  0.91597646  0.32235123  0.84620420  1
  H  H399  1  0.85786393  0.34559290  0.59338538  1
  C  C400  1  0.98376115  0.35894873  0.54815081  1
  H  H401  1  0.91602368  0.39199868  0.71452900  1
  C  C402  1  0.90171149  0.47428335  0.79429209  1
  O  O403  1  0.78685494  0.31723837  0.61503293  1
  H  H404  1  0.91506744  0.45430838  0.65112101  1
  H  H405  1  0.77812562  0.30270505  0.76930343  1
  C  C406  1  0.90355530  0.38467021  0.91306661  1
  H  H407  1  0.76189955  0.41338140  0.54810715  1
  C  C408  1  0.90328058  0.34458633  0.97597312  1
  O  O409  1  0.96535145  0.34211917  0.64283438  1
  O  O410  1  0.96389907  0.55083489  0.33427616  1
  C  C411  1  0.86319419  0.52467604  0.12461786  1
  H  H412  1  0.84768059  0.54714763  0.22705073  1
  H  H413  1  0.77697611  0.60012363  0.28198300  1
  C  C414  1  0.97607785  0.56535734  0.11729513  1
  Zn  Zn415  1  0.85507850  0.67276730  0.23670107  1
  C  C416  1  0.76270086  0.57336792  0.25090652  1
  H  H417  1  0.99262872  0.63788708  0.20745381  1
  H  H418  1  0.76480866  0.73103108  0.34212752  1
  C  C419  1  0.77344788  0.53914478  0.10250619  1
  O  O420  1  0.96017704  0.59291468  0.00818321  1
  C  C421  1  0.75247313  0.50506771  0.08178038  1
  C  C422  1  0.82513586  0.71371562  0.46919429  1
  H  H423  1  0.89905838  0.95605531  0.03382186  1
  O  O424  1  0.75576243  0.97570945  0.42017365  1
  C  C425  1  0.75602256  0.75698739  0.22189962  1
  C  C426  1  0.92639346  0.83833268  0.49585225  1
  C  C427  1  0.92118904  0.79404599  0.40974492  1
  H  H428  1  0.95963870  0.92201708  0.24346621  1
  H  H429  1  0.96369781  0.97328143  0.37373652  1
  C  C430  1  0.94781480  0.90210186  0.38448561  1
  H  H431  1  0.95484987  0.84943362  0.10906047  1
  C  C432  1  0.94478901  0.86134157  0.31131346  1
  O  O433  1  0.93475270  0.78277791  0.19322147  1
  C  C434  1  0.77515961  0.97328455  0.24809359  1
  O  O435  1  0.99309570  0.95938091  0.04029632  1
  H  H436  1  0.90701316  0.90092281  0.02348964  1
  O  O437  1  0.79378703  0.97160098  0.07509450  1
  C  C438  1  0.77928739  0.69264140  0.85355731  1
  C  C439  1  0.78745193  0.73467756  0.80104968  1
  C  C440  1  0.87650932  0.58574166  0.83115030  1
  O  O441  1  0.95949503  0.70403261  0.84785232  1
  C  C442  1  0.90115072  0.51575506  0.74917428  1
  C  C443  1  0.96573704  0.67730560  0.65792589  1
  C  C444  1  0.79225926  0.66147691  0.68495025  1
  O  O445  1  0.89204770  0.60095795  0.62816718  1
  H  H446  1  0.91140100  0.52832912  0.55001902  1
  Zn  Zn447  1  0.94161640  0.59215099  0.59710319  1
  H  H448  1  0.75904156  0.68582546  0.98477229  1
  H  H449  1  0.88908927  0.66641587  0.88653585  1
  O  O450  1  0.88423525  0.69220235  0.95815748  1
  H  H451  1  0.78467690  0.62865959  0.71182971  1
  C  C452  1  0.88034638  0.54111379  0.90128896  1
  C  C453  1  0.99980112  0.67202299  0.59116850  1
  Zn  Zn454  1  0.91864074  0.73433765  0.91821379  1
  H  H455  1  0.79695753  0.53909353  0.99646680  1
  O  O456  1  0.85854260  0.60762561  0.97230674  1
  C  C457  1  0.81038969  0.74702821  0.59919632  1
  O  O458  1  0.94502383  0.65849126  0.52762041  1
  C  C459  1  0.81729751  0.67278938  0.51250582  1
  C  C460  1  0.91563243  0.89013096  0.82103933  1
  C  C461  1  0.93032753  0.95976147  0.69093703  1
  O  O462  1  0.90236029  0.77229543  0.54614914  1
  H  H463  1  0.81699331  0.77836835  0.55705233  1
  H  H464  1  0.77204921  0.81421963  0.61970199  1
  C  C465  1  0.93245541  0.91608646  0.63037936  1
  C  C466  1  0.91325540  0.97769548  0.91033727  1
  C  C467  1  0.76039499  0.80445251  0.81569554  1
  C  C468  1  0.91392903  0.84924912  0.75580533  1
  H  H469  1  0.90420587  0.82474179  0.89777274  1
  C  C470  1  0.95074069  0.98498610  0.53347899  1
  C  C471  1  0.76905095  0.76640517  0.94952063  1
