# generated using pymatgen
data_Zn3H14(C12O5)2
_symmetry_space_group_name_H-M   'P 1'
_cell_length_a   23.64494483
_cell_length_b   9.98368794
_cell_length_c   9.33877786
_cell_angle_alpha   90.00000000
_cell_angle_beta   90.00000000
_cell_angle_gamma   90.00000000
_symmetry_Int_Tables_number   1
_chemical_formula_structural   Zn3H14(C12O5)2
_chemical_formula_sum   'Zn12 H56 C96 O40'
_cell_volume   2204.54692724
_cell_formula_units_Z   4
loop_
 _symmetry_equiv_pos_site_id
 _symmetry_equiv_pos_as_xyz
  1  'x, y, z'
loop_
 _atom_site_type_symbol
 _atom_site_label
 _atom_site_symmetry_multiplicity
 _atom_site_fract_x
 _atom_site_fract_y
 _atom_site_fract_z
 _atom_site_occupancy
  C  C0  1  0.13381017  0.44084540  0.16018400  1
  C  C1  1  0.21137746  0.08293977  0.27722271  1
  C  C2  1  0.07169987  0.40418509  0.15599654  1
  H  H3  1  0.15624307  0.28286992  0.01874466  1
  C  C4  1  0.23183594  0.37980197  0.11803609  1
  C  C5  1  0.23165201  0.19551242  0.36383267  1
  C  C6  1  0.17403582  0.36104697  0.09349842  1
  O  O7  1  0.05564041  0.31477140  0.07251090  1
  C  C8  1  0.15324519  0.06228146  0.26358768  1
  H  H9  1  0.12099691  0.11713244  0.32416061  1
  H  H10  1  0.19842814  0.25308961  0.41691483  1
  O  O11  1  0.03800016  0.48174990  0.22156988  1
  C  C12  1  0.10798031  0.18211849  0.80609494  1
  H  H13  1  0.16594089  0.05483891  0.92807646  1
  C  C14  1  0.14744082  0.36459354  0.66530581  1
  C  C15  1  0.20357360  0.32202431  0.70514154  1
  C  C16  1  0.04215604  0.34884473  0.69093341  1
  C  C17  1  0.10196585  0.29663966  0.71687880  1
  C  C18  1  0.20981795  0.20789158  0.80509375  1
  H  H19  1  0.06864815  0.13200368  0.84677165  1
  H  H20  1  0.16146384  0.03176736  0.58619329  1
  H  H21  1  0.14316128  0.46169593  0.60050483  1
  C  C22  1  0.16210029  0.13784607  0.84775809  1
  O  O23  1  0.03696013  0.43756183  0.59568306  1
  O  O24  1  0.00309510  0.28628649  0.74192072  1
  H  H25  1  0.24640589  0.48941494  0.59444858  1
  C  C26  1  0.18064339  0.88053778  0.09779325  1
  C  C27  1  0.22361004  0.68619606  0.36671879  1
  C  C28  1  0.13978858  0.95054932  0.17813906  1
  C  C29  1  0.20680109  0.58295620  0.26934384  1
  C  C30  1  0.07869583  0.91932858  0.15191126  1
  O  O31  1  0.06481860  0.83238106  0.06447501  1
  H  H32  1  0.11724945  0.61033188  0.29941568  1
  H  H33  1  0.16602289  0.80502255  0.02027512  1
  C  C34  1  0.14991206  0.55285086  0.24346494  1
  C  C35  1  0.23791233  0.89788153  0.11592310  1
  H  H36  1  0.19556664  0.75293157  0.42762508  1
  O  O37  1  0.04330603  0.99485168  0.21546216  1
  C  C38  1  0.07382076  0.86725701  0.62906703  1
  C  C39  1  0.20084720  0.71111942  0.81107181  1
  H  H40  1  0.11046806  0.64876969  0.77627823  1
  C  C41  1  0.13206059  0.84383467  0.68661591  1
  C  C42  1  0.14317237  0.72456991  0.75876652  1
  O  O43  1  0.03405912  0.78301902  0.63020788  1
  C  C44  1  0.17402453  0.94334008  0.65077778  1
  H  H45  1  0.19391049  0.50459221  0.89264843  1
  C  C46  1  0.22405025  0.58889717  0.86792223  1
  O  O47  1  0.06173137  0.98488647  0.59077998  1
  C  C48  1  0.22872748  0.92621804  0.69623382  1
  C  C49  1  0.24697380  0.80967101  0.77580690  1
  C  C50  1  0.33016489  0.13671371  0.33061347  1
  Zn  Zn51  1  0.44352734  0.14096825  0.08932339  1
  Zn  Zn52  1  0.47056234  0.40424464  0.46323235  1
  O  O53  1  0.43206622  0.10404394  0.31276662  1
  C  C54  1  0.39076567  0.16880279  0.36717648  1
  C  C55  1  0.31648761  0.03294117  0.23668628  1
  C  C56  1  0.28744605  0.22166093  0.39596783  1
  O  O57  1  0.40078332  0.25788759  0.45830462  1
  H  H58  1  0.26186282  0.30237383  0.08131752  1
  H  H59  1  0.34010870  0.43989792  0.19364157  1
  O  O60  1  0.49902371  0.32457076  0.06527002  1
  H  H61  1  0.30194127  0.30536620  0.46867546  1
  C  C62  1  0.25042639  0.49046265  0.20735929  1
  C  C63  1  0.30486638  0.35360326  0.69389626  1
  C  C64  1  0.30910004  0.24478381  0.79258328  1
  O  O65  1  0.41121775  0.24547584  0.78946067  1
  C  C66  1  0.36775378  0.20177573  0.84696741  1
  C  C67  1  0.26526518  0.17090494  0.84945208  1
  H  H68  1  0.34702846  0.41000558  0.66860896  1
  H  H69  1  0.27160363  0.08743398  0.92623075  1
  Zn  Zn70  1  0.47079601  0.43454874  0.86947877  1
  H  H71  1  0.26011059  0.00467300  0.66786306  1
  H  H72  1  0.41124660  0.04422454  0.56539988  1
  C  C73  1  0.25201657  0.39735220  0.65697943  1
  O  O74  1  0.45226488  0.49194960  0.65748922  1
  Zn  Zn75  1  0.49194256  0.09590135  0.72214311  1
  O  O76  1  0.36880742  0.12783629  0.95407720  1
  H  H77  1  0.29655780  0.46578346  0.92822746  1
  C  C78  1  0.32078440  0.60779281  0.34264234  1
  H  H79  1  0.35080025  0.98178358  0.17527198  1
  C  C80  1  0.38051706  0.62488451  0.39285518  1
  O  O81  1  0.41774310  0.54497058  0.34479111  1
  H  H82  1  0.44165455  0.73804452  0.25157897  1
  Zn  Zn83  1  0.44900651  0.88875702  0.41641661  1
  O  O84  1  0.44624847  0.82815102  0.21918289  1
  H  H85  1  0.26848496  0.83816200  0.05697047  1
  Zn  Zn86  1  0.48529737  0.80809363  0.02299963  1
  C  C87  1  0.27893064  0.68790613  0.40870625  1
  C  C88  1  0.25748607  0.99929276  0.21085369  1
  O  O89  1  0.39301678  0.71985301  0.47124089  1
  C  C90  1  0.30702766  0.50672006  0.24547695  1
  H  H91  1  0.29239185  0.76062571  0.49125265  1
  C  C92  1  0.32311940  0.65922998  0.86834969  1
  O  O93  1  0.40195628  0.53958478  0.94764128  1
  H  H94  1  0.33496573  0.86064349  0.79409662  1
  C  C95  1  0.38452837  0.64637956  0.89116196  1
  O  O96  1  0.41726041  0.74638860  0.87097685  1
  C  C97  1  0.28071946  0.56270234  0.89524063  1
  C  C98  1  0.30374919  0.77941181  0.81271515  1
  H  H99  1  0.43841559  0.96342806  0.91182728  1
  O  O100  1  0.43778040  0.98084429  0.60097269  1
  H  H101  1  0.43254916  0.57379781  0.64828794  1
  O  O102  1  0.47800308  0.99936865  0.94060518  1
  C  C103  1  0.53483833  0.34192470  0.16381266  1
  C  C104  1  0.62958630  0.33669257  0.27814019  1
  H  H105  1  0.71258251  0.33093498  0.37245025  1
  C  C106  1  0.68660349  0.30817850  0.27419148  1
  C  C107  1  0.59565102  0.30001571  0.15948961  1
  H  H108  1  0.61273054  0.39695631  0.36820766  1
  C  C109  1  0.71237868  0.24953867  0.14791473  1
  O  O110  1  0.52411800  0.40680495  0.27427052  1
  C  C111  1  0.61703606  0.24867818  0.03001487  1
  C  C112  1  0.67388464  0.21570916  0.02515249  1
  H  H113  1  0.62853418  0.49492305  0.00197193  1
  C  C114  1  0.71279145  0.03756573  0.47833361  1
  C  C115  1  0.66967244  0.39885309  0.69130063  1
  C  C116  1  0.62859579  0.29619629  0.65729697  1
  C  C117  1  0.56868519  0.32266388  0.68849020  1
  O  O118  1  0.55641999  0.40584306  0.78549886  1
  C  C119  1  0.69843206  0.16539243  0.54097143  1
  O  O120  1  0.52790102  0.26132331  0.61807118  1
  H  H121  1  0.68170661  0.13970861  0.79748650  1
  C  C122  1  0.64256760  0.18807481  0.56959287  1
  C  C123  1  0.70373422  0.16608333  0.90078183  1
  C  C124  1  0.74557770  0.25741903  0.58986771  1
  H  H125  1  0.60799616  0.12359673  0.54167666  1
  C  C126  1  0.72443990  0.37784059  0.65332784  1
  H  H127  1  0.72880141  0.39101386  0.95749202  1
  H  H128  1  0.59086184  0.23899748  0.93477485  1
  H  H129  1  0.65692718  0.49024141  0.74363190  1
  C  C130  1  0.72169581  0.49977158  0.98011746  1
  H  H131  1  0.69988278  0.87674032  0.10303355  1
  C  C132  1  0.60263128  0.75080811  0.06344116  1
  O  O133  1  0.59692943  0.87019706  0.08707065  1
  C  C134  1  0.66048793  0.68807527  0.04833752  1
  C  C135  1  0.70632651  0.69762559  0.46972681  1
  H  H136  1  0.62822224  0.76108440  0.36269560  1
  C  C137  1  0.73398932  0.62941607  0.35383357  1
  H  H138  1  0.71407525  0.61372130  0.25178933  1
  O  O139  1  0.54633917  0.88089114  0.46730883  1
  C  C140  1  0.70550927  0.77553566  0.06404245  1
  C  C141  1  0.65079471  0.75427046  0.46301925  1
  H  H142  1  0.68312006  0.96768657  0.43552657  1
  O  O143  1  0.55970842  0.67847196  0.03800207  1
  C  C144  1  0.66760822  0.55198563  0.00715986  1
  O  O145  1  0.55248906  0.92319612  0.70025293  1
  H  H146  1  0.63225546  0.84144956  0.82180692  1
  C  C147  1  0.57006663  0.87585693  0.58451217  1
  C  C148  1  0.73658842  0.70457464  0.61067253  1
  C  C149  1  0.70694260  0.75201418  0.72942954  1
  C  C150  1  0.65292543  0.80264878  0.72387933  1
  C  C151  1  0.62710948  0.80357811  0.58708487  1
  H  H152  1  0.72627149  0.75281692  0.83617419  1
  Zn  Zn153  1  0.98572646  0.15446102  0.13746518  1
  H  H154  1  0.79438139  0.23983110  0.25090832  1
  O  O155  1  0.90099780  0.49312326  0.40986563  1
  H  H156  1  0.93534756  0.23054222  0.32666411  1
  C  C157  1  0.77085589  0.22200952  0.14834213  1
  O  O158  1  0.88978157  0.17635949  0.11341110  1
  Zn  Zn159  1  0.98399063  0.43558569  0.41968582  1
  O  O160  1  0.97298165  0.25308631  0.31689657  1
  C  C161  1  0.85892482  0.19326320  0.00568044  1
  C  C162  1  0.79439445  0.18654676  0.02136233  1
  C  C163  1  0.80186838  0.21447848  0.57327847  1
  Zn  Zn164  1  0.91635562  0.39572646  0.84573944  1
  H  H165  1  0.78098746  0.13785374  0.79771594  1
  C  C166  1  0.76111098  0.15717909  0.89764404  1
  Zn  Zn167  1  0.98492223  0.08431003  0.68033745  1
  H  H168  1  0.83665069  0.28275927  0.60405880  1
  H  H169  1  0.82057523  0.44054802  0.89149653  1
  H  H170  1  0.94497208  0.07466360  0.94220586  1
  O  O171  1  0.87979869  0.21001939  0.88376948  1
  H  H172  1  0.75491461  0.46478239  0.67488834  1
  O  O173  1  0.98427661  0.04851376  0.94979552  1
  O  O174  1  0.91309222  0.12101469  0.53732736  1
  C  C175  1  0.87380593  0.04639899  0.50554936  1
  C  C176  1  0.81200650  0.09016467  0.51673561  1
  C  C177  1  0.81201293  0.80076031  0.07626026  1
  C  C178  1  0.86554548  0.75599247  0.02968474  1
  C  C179  1  0.79024127  0.59285583  0.37173010  1
  H  H180  1  0.81125221  0.90002768  0.13512763  1
  H  H181  1  0.78249849  0.89796503  0.43795371  1
  H  H182  1  0.97377927  0.61892989  0.30212864  1
  H  H183  1  0.99878140  0.75122199  0.23083549  1
  O  O184  1  0.88004730  0.92554704  0.47388842  1
  H  H185  1  0.81126816  0.54769725  0.28256181  1
  C  C186  1  0.76197157  0.72945423  0.04963839  1
  O  O187  1  0.91011775  0.81587515  0.05584643  1
  O  O188  1  0.98906569  0.71282031  0.33491796  1
  C  C189  1  0.76865032  0.99906900  0.47604295  1
  H  H190  1  0.91572051  0.95248619  0.75512123  1
  O  O191  1  0.97584380  0.61883555  0.93179942  1
  C  C192  1  0.79484794  0.66855173  0.62155515  1
  H  H193  1  0.81732203  0.67122160  0.72707505  1
  C  C194  1  0.87253091  0.61812043  0.96260009  1
  O  O195  1  0.95077066  0.90684729  0.74241675  1
  C  C196  1  0.82393858  0.53859229  0.94747895  1
  C  C197  1  0.92861303  0.57725019  0.92693887  1
  C  C198  1  0.77030544  0.59150524  0.99053579  1
  O  O199  1  0.90964698  0.60046645  0.61054484  1
  Zn  Zn200  1  0.94847986  0.80186962  0.53889474  1
  Zn  Zn201  1  0.99082127  0.83528545  0.92390545  1
  C  C202  1  0.81845903  0.60391467  0.50619659  1
  C  C203  1  0.87943310  0.55112833  0.51944361  1
