# generated using pymatgen
data_Cu7H42(C5N3)12
_symmetry_space_group_name_H-M   'P 1'
_cell_length_a   15.54943876
_cell_length_b   32.35527065
_cell_length_c   12.01749083
_cell_angle_alpha   90.00000000
_cell_angle_beta   90.00000000
_cell_angle_gamma   90.00000000
_symmetry_Int_Tables_number   1
_chemical_formula_structural   Cu7H42(C5N3)12
_chemical_formula_sum   'Cu28 H168 C240 N144'
_cell_volume   6046.07534018
_cell_formula_units_Z   4
loop_
 _symmetry_equiv_pos_site_id
 _symmetry_equiv_pos_as_xyz
  1  'x, y, z'
loop_
 _atom_site_type_symbol
 _atom_site_label
 _atom_site_symmetry_multiplicity
 _atom_site_fract_x
 _atom_site_fract_y
 _atom_site_fract_z
 _atom_site_occupancy
  H  H0  1  0.38185663  0.19875856  0.40699350  1
  H  H1  1  0.06465772  0.20869362  0.04828933  1
  N  N2  1  0.06929702  0.00145431  0.38488512  1
  C  C3  1  0.17628134  0.13902072  0.44064140  1
  N  N4  1  0.49279091  0.09382532  0.40222214  1
  N  N5  1  0.04921399  0.03818960  0.22303559  1
  C  C6  1  0.14355671  0.07035952  0.37749148  1
  C  C7  1  0.11788691  0.11248411  0.38462846  1
  H  H8  1  0.27154091  0.19895718  0.01785919  1
  C  C9  1  0.08755517  0.03657177  0.32261977  1
  C  C10  1  0.40309795  0.23234671  0.17629325  1
  H  H11  1  0.04797136  0.15739646  0.00780259  1
  H  H12  1  0.42609825  0.20506249  0.22196004  1
  C  C13  1  0.43557504  0.21857569  0.40563108  1
  Cu  Cu14  1  0.15425533  0.02257090  0.09043020  1
  N  N15  1  0.11677776  0.07661119  0.07372832  1
  H  H16  1  0.05595183  0.12489214  0.35161794  1
  N  N17  1  0.06473672  0.24734291  0.30950026  1
  N  N18  1  0.06393193  0.08414610  0.14578756  1
  C  C19  1  0.22442221  0.05591402  0.42281124  1
  N  N20  1  0.12672474  0.23550166  0.26186833  1
  H  H21  1  0.23805702  0.02178806  0.41328225  1
  H  H22  1  0.16225055  0.17233517  0.44643956  1
  H  H23  1  0.38869138  0.13797349  0.39832389  1
  C  C24  1  0.45617611  0.13037177  0.40655812  1
  H  H25  1  0.27756340  0.23864580  0.26908208  1
  C  C26  1  0.25353636  0.12543202  0.48633152  1
  H  H27  1  0.43866199  0.00257176  0.48982668  1
  C  C28  1  0.27936791  0.08287927  0.47706796  1
  H  H29  1  0.45388585  0.18779068  0.03210819  1
  C  C30  1  0.12246829  0.17281423  0.85304507  1
  N  N31  1  0.27662293  0.03748446  0.73546769  1
  C  C32  1  0.03744089  0.10875376  0.88050878  1
  H  H33  1  0.44699512  0.05146981  0.84314735  1
  C  C34  1  0.14563422  0.15854108  0.74262446  1
  C  C35  1  0.10868330  0.12277963  0.69731436  1
  N  N36  1  0.34731057  0.20130267  0.66388252  1
  C  C37  1  0.17157227  0.24716243  0.83409324  1
  C  C38  1  0.05967904  0.09782998  0.77088786  1
  H  H39  1  0.21609618  0.24866036  0.76437235  1
  N  N40  1  0.29685785  0.14883055  0.57554184  1
  H  H41  1  0.35347289  0.09915765  0.66458075  1
  H  H42  1  0.42057339  0.16964587  0.78652102  1
  Cu  Cu43  1  0.16956558  0.01957217  0.87782537  1
  H  H44  1  0.11867331  0.11329519  0.60804598  1
  C  C45  1  0.38383994  0.16717510  0.70845945  1
  H  H46  1  0.19377463  0.17538588  0.69691349  1
  N  N47  1  0.33314767  0.02217858  0.78881663  1
  N  N48  1  0.13232084  0.21440859  0.89010390  1
  C  C49  1  0.35302012  0.13317486  0.65256321  1
  C  C50  1  0.30039552  0.19124958  0.57805355  1
  C  C51  1  0.09636699  0.22907774  0.98659344  1
  H  H52  1  0.49178239  0.23625165  0.63582239  1
  H  H53  1  0.00008139  0.08782036  0.93218635  1
  C  C54  1  0.07014074  0.14624678  0.92333901  1
  N  N55  1  0.42122368  0.13110162  0.94098944  1
  H  H56  1  0.33331062  0.08816128  0.84668581  1
  C  C57  1  0.02604467  0.05273377  0.73963295  1
  N  N58  1  0.07307021  0.02040614  0.77627466  1
  H  H59  1  0.33811209  0.07002073  0.51729018  1
  N  N60  1  0.28411600  0.13937721  0.93271506  1
  C  C61  1  0.34546904  0.11439292  0.89927097  1
  C  C62  1  0.31591175  0.17298229  0.98621348  1
  C  C63  1  0.40347630  0.16800467  0.99188902  1
  H  H64  1  0.00685651  0.24706963  0.66756487  1
  Cu  Cu65  1  0.06100986  0.00663036  0.54021861  1
  H  H66  1  0.26451529  0.21019786  0.51410453  1
  C  C67  1  0.42641675  0.44251471  0.12252117  1
  C  C68  1  0.45607077  0.37765742  0.15258383  1
  C  C69  1  0.30847320  0.39987323  0.46420387  1
  H  H70  1  0.10344181  0.29390876  0.05120188  1
  C  C71  1  0.21580244  0.31233580  0.19378424  1
  H  H72  1  0.29964246  0.37898402  0.29202586  1
  C  C73  1  0.42245140  0.25996007  0.39283670  1
  C  C74  1  0.33664365  0.39617214  0.35115556  1
  N  N75  1  0.20560527  0.35002914  0.16243774  1
  N  N76  1  0.07469070  0.33676402  0.25850469  1
  C  C77  1  0.32238083  0.25077303  0.20498866  1
  H  H78  1  0.35772173  0.27388623  0.39474193  1
  C  C79  1  0.01576124  0.32717962  0.49421374  1
  N  N80  1  0.11075100  0.36772342  0.22341555  1
  C  C81  1  0.30159212  0.28937360  0.15419457  1
  C  C82  1  0.41233022  0.41859279  0.32289281  1
  C  C83  1  0.49651456  0.28431089  0.36817764  1
  N  N84  1  0.14756632  0.29634103  0.24367477  1
  N  N85  1  0.43602401  0.41379152  0.20411282  1
  N  N86  1  0.18773526  0.46605064  0.46671659  1
  C  C87  1  0.34519289  0.30879752  0.06786088  1
  C  C88  1  0.44529017  0.42356413  0.01966148  1
  N  N89  1  0.48204133  0.32651518  0.36287815  1
  H  H90  1  0.01682330  0.29823102  0.44524187  1
  H  H91  1  0.45738250  0.34851755  0.19652436  1
  C  C92  1  0.44867195  0.44737056  0.39773344  1
  H  H93  1  0.15936168  0.28886236  0.41946097  1
  C  C94  1  0.45764927  0.25514861  0.10111041  1
  H  H95  1  0.24518463  0.38526817  0.49045444  1
  H  H96  1  0.40611848  0.47596487  0.13296705  1
  N  N97  1  0.11586865  0.47394712  0.43408033  1
  N  N98  1  0.46458261  0.38417015  0.04294872  1
  C  C99  1  0.19499787  0.30009509  0.49376154  1
  H  H100  1  0.07980324  0.41551311  0.04797948  1
  H  H101  1  0.32647159  0.33677798  0.02336442  1
  C  C102  1  0.42399975  0.29024810  0.04581811  1
  H  H103  1  0.35800377  0.30150362  0.65496323  1
  N  N104  1  0.27500308  0.29018892  0.51845220  1
  H  H105  1  0.46624283  0.46022909  0.74326937  1
  C  C106  1  0.31859145  0.42095416  0.66098248  1
  C  C107  1  0.44482563  0.49030696  0.78051696  1
  C  C108  1  0.03690393  0.36677190  0.92264129  1
  N  N109  1  0.16223432  0.28055694  0.89477871  1
  H  H110  1  0.08796365  0.34387451  0.90320690  1
  N  N111  1  0.35319769  0.40694532  0.75305953  1
  N  N112  1  0.21955415  0.42945382  0.82695980  1
  C  C113  1  0.06796718  0.38093945  0.63171051  1
  N  N114  1  0.28423548  0.41209544  0.86086998  1
  N  N115  1  0.23652637  0.43491083  0.68471551  1
  C  C116  1  0.08145018  0.34492259  0.56411388  1
  C  C117  1  0.36017081  0.42243288  0.54140990  1
  C  C118  1  0.29749421  0.31041502  0.61445870  1
  C  C119  1  0.22848314  0.33401641  0.64941708  1
  H  H120  1  0.12249753  0.39331235  0.67888156  1
  C  C121  1  0.11543319  0.27099730  0.98558925  1
  N  N122  1  0.16452857  0.32583201  0.57324225  1
  H  H123  1  0.05736925  0.30556810  0.79750023  1
  H  H124  1  0.21681156  0.35763471  0.71673765  1
  C  C125  1  0.03098319  0.40009613  0.99387046  1
  N  N126  1  0.18861667  0.47420329  0.61384209  1
  H  H127  1  0.43465093  0.43153785  0.93291012  1
  H  H128  1  0.45879929  0.30810913  0.98514172  1
  C  C129  1  0.07266497  0.49594245  0.76248403  1
  H  H130  1  0.46313718  0.46469597  0.57482045  1
  C  C131  1  0.10608079  0.48503192  0.64308264  1
  N  N132  1  0.05637184  0.48557755  0.55473945  1
  H  H133  1  0.19100093  0.49110536  0.85816013  1
  C  C134  1  0.43170518  0.44660796  0.51262888  1
  C  C135  1  0.03401269  0.74494833  0.13294390  1
  H  H136  1  0.16238515  0.69153867  0.05571158  1
  C  C137  1  0.28491756  0.72645606  0.26372065  1
  H  H138  1  0.14741420  0.55926230  0.47962351  1
  C  C139  1  0.11368808  0.57694982  0.41825106  1
  C  C140  1  0.14840434  0.58230508  0.31090985  1
  H  H141  1  0.44587159  0.54225215  0.47079922  1
  N  N142  1  0.32510818  0.67486559  0.15504657  1
  N  N143  1  0.02217167  0.70546454  0.07647492  1
  N  N144  1  0.29740940  0.54708955  0.34408979  1
  H  H145  1  0.25151594  0.74596217  0.32393601  1
  N  N146  1  0.09534987  0.68999359  0.40181774  1
  C  C147  1  0.27085134  0.68528267  0.23560741  1
  H  H148  1  0.05142235  0.52276181  0.18889275  1
  C  C149  1  0.07011510  0.72844900  0.40179256  1
  H  H150  1  0.13604193  0.60776075  0.12883293  1
  C  C151  1  0.37067438  0.70887752  0.12700474  1
  C  C152  1  0.10924932  0.60178673  0.21532156  1
  C  C153  1  0.24045397  0.56747775  0.27968135  1
  C  C154  1  0.09309580  0.68091661  0.05047013  1
  H  H155  1  0.22021074  0.66342492  0.26031379  1
  N  N156  1  0.27480648  0.57280168  0.17848958  1
  N  N157  1  0.38266844  0.53121917  0.26734846  1
  N  N158  1  0.37249558  0.54646141  0.17462630  1
  H  H159  1  0.12474571  0.51067439  0.04236915  1
  H  H160  1  0.42366477  0.70955106  0.06708469  1
  C  C161  1  0.02271692  0.61255071  0.23547216  1
  C  C162  1  0.03102673  0.59414405  0.43639590  1
  H  H163  1  0.03000170  0.74174185  0.34022980  1
  N  N164  1  0.34533557  0.74196904  0.19112198  1
  H  H165  1  0.17428992  0.74061782  0.14081132  1
  N  N166  1  0.10514087  0.74877437  0.49315522  1
  N  N167  1  0.06430007  0.64621632  0.00423239  1
  C  C168  1  0.15440071  0.68369681  0.48744293  1
  C  C169  1  0.22222116  0.59416485  0.85301293  1
  C  C170  1  0.22286629  0.57439950  0.67862630  1
  H  H171  1  0.37643558  0.58809926  0.62211131  1
  C  C172  1  0.36740493  0.67457223  0.85449282  1
  C  C173  1  0.15873362  0.72103051  0.54409088  1
  H  H174  1  0.11136529  0.69232719  0.78040291  1
  H  H175  1  0.32993110  0.62368300  0.73717855  1
  H  H176  1  0.23929913  0.56177197  0.59718501  1
  C  C177  1  0.44682933  0.58738442  0.61328094  1
  H  H178  1  0.37509354  0.59217400  0.93378261  1
  H  H179  1  0.04565848  0.65218951  0.58141952  1
  H  H180  1  0.10355869  0.63499079  0.82665287  1
  C  C181  1  0.34493757  0.54848852  0.80620179  1
  C  C182  1  0.39905895  0.56440693  0.88993578  1
  C  C183  1  0.14333028  0.72143898  0.80369560  1
  N  N184  1  0.26667664  0.57148968  0.77774369  1
  C  C185  1  0.15233948  0.61228758  0.79669546  1
  H  H186  1  0.20044627  0.73016769  0.61706421  1
  N  N187  1  0.15575795  0.60006613  0.69280230  1
  C  C188  1  0.37948794  0.64466096  0.77073673  1
  C  C189  1  0.48267940  0.56295053  0.52854524  1
  H  H190  1  0.33404454  0.50008784  0.67719308  1
  N  N191  1  0.44132396  0.69166772  0.88142870  1
  N  N192  1  0.23256516  0.72336962  0.80679509  1
  C  C193  1  0.36802285  0.51190115  0.75017332  1
  C  C194  1  0.08570582  0.51088563  0.96329315  1
  C  C195  1  0.47849538  0.54602469  0.91381148  1
  H  H196  1  0.30404491  0.68098165  0.90348745  1
  N  N197  1  0.46424871  0.64265588  0.75413711  1
  C  C198  1  0.49806775  0.50894095  0.86078297  1
  C  C199  1  0.12277451  0.50068910  0.85946354  1
  H  H200  1  0.23952537  0.59328050  0.94351201  1
  C  C201  1  0.00104423  0.65629670  0.64942628  1
  H  H202  1  0.32144638  0.74709891  0.70032520  1
  H  H203  1  0.47614257  0.72484315  0.62181598  1
  H  H204  1  0.17328907  0.65124868  0.50695173  1
  C  C205  1  0.42956246  0.79972236  0.11760222  1
  H  H206  1  0.40680897  0.84186341  0.47857516  1
  H  H207  1  0.46044377  0.77502929  0.06251778  1
  N  N208  1  0.41525631  0.99458333  0.12597112  1
  N  N209  1  0.33675066  0.92503113  0.37641991  1
  C  C210  1  0.05859644  0.82730948  0.19892762  1
  C  C211  1  0.17759707  0.94859642  0.00067882  1
  N  N212  1  0.36552415  0.94089577  0.24596093  1
  H  H213  1  0.29051129  0.80026946  0.35036834  1
  C  C214  1  0.07013665  0.87466701  0.22970109  1
  H  H215  1  0.47993785  0.82026673  0.32312242  1
  N  N216  1  0.14853074  0.89338217  0.22382004  1
  C  C217  1  0.48275920  0.90238289  0.45990561  1
  H  H218  1  0.20016905  0.81082046  0.20615395  1
  C  C219  1  0.12017689  0.76117014  0.14806537  1
  C  C220  1  0.37197190  0.78445052  0.19995790  1
  C  C221  1  0.03038233  0.86015269  0.48679146  1
  Cu  Cu222  1  0.18546510  0.94687477  0.24652653  1
  C  C223  1  0.38884850  0.86994510  0.17245130  1
  N  N224  1  0.18105695  0.96738987  0.10058810  1
  H  H225  1  0.18260192  0.87283764  0.17147532  1
  N  N226  1  0.25193125  0.95568874  0.42369926  1
  C  C227  1  0.44183238  0.84243617  0.10900889  1
  N  N228  1  0.00752463  0.89590242  0.26969541  1
  C  C229  1  0.33323840  0.81133858  0.28272183  1
  N  N230  1  0.42000429  0.94265470  0.08150796  1
  H  H231  1  0.29368072  0.87461327  0.30986766  1
  N  N232  1  0.38604760  0.99274073  0.22034236  1
  C  C233  1  0.13498032  0.80079213  0.18609848  1
  C  C234  1  0.33591418  0.85372419  0.25958643  1
  C  C235  1  0.39318719  0.91682941  0.16160985  1
  C  C236  1  0.39797382  0.92446302  0.46168122  1
  Cu  Cu237  1  0.03112940  0.94822127  0.32635310  1
  H  H238  1  0.48288677  0.85371663  0.03851711  1
  C  C239  1  0.17534840  0.89917790  0.00079214  1
  H  H240  1  0.49753821  0.91320806  0.28417448  1
  C  C241  1  0.03937251  0.81850577  0.45532515  1
  H  H242  1  0.31753543  0.89463640  0.01009062  1
  N  N243  1  0.27359321  0.97025871  0.51368313  1
  N  N244  1  0.34114331  0.80124402  0.58581208  1
  C  C245  1  0.13134965  0.84852747  0.64281359  1
  C  C246  1  0.11133601  0.75501257  0.86113007  1
  H  H247  1  0.17864993  0.78770994  0.66319606  1
  N  N248  1  0.33353935  0.90077725  0.81272042  1
  H  H249  1  0.16485880  0.85719140  0.71649096  1
  C  C250  1  0.08468168  0.92275721  0.60038324  1
  H  H251  1  0.04580796  0.76774505  0.87342172  1
  N  N252  1  0.36999704  0.94877253  0.54092129  1
  Cu  Cu253  1  0.33674296  0.96099860  0.78792026  1
  N  N254  1  0.49173300  0.96568370  0.90393909  1
  C  C255  1  0.40408416  0.81199771  0.52097613  1
  C  C256  1  0.25402862  0.75434829  0.87026864  1
  N  N257  1  0.18189916  0.77677613  0.89533036  1
  H  H258  1  0.01004504  0.82799117  0.76790019  1
  C  C259  1  0.13865374  0.80828641  0.60815394  1
  C  C260  1  0.25677895  0.83586593  0.97998312  1
  N  N261  1  0.03247940  0.95025334  0.56306626  1
  H  H262  1  0.32028687  0.76305358  0.88983386  1
  H  H263  1  0.31931788  0.81806078  0.98611119  1
  H  H264  1  0.48281552  0.88761224  0.64509926  1
  N  N265  1  0.42197664  0.95908507  0.67545101  1
  Cu  Cu266  1  0.16670037  0.91395402  0.80650833  1
  N  N267  1  0.16716864  0.96191497  0.89974907  1
  Cu  Cu268  1  0.25605853  0.90774602  0.61430617  1
  N  N269  1  0.30598368  0.87925341  0.73983744  1
  N  N270  1  0.47428150  0.93281473  0.94610543  1
  C  C271  1  0.17471838  0.81642519  0.95337413  1
  Cu  Cu272  1  0.20161091  0.99443181  0.66722327  1
  C  C273  1  0.09238917  0.79180642  0.51604855  1
  N  N274  1  0.15806549  0.93660770  0.65952128  1
  C  C275  1  0.07617263  0.87592923  0.57890667  1
  Cu  Cu276  1  0.03133501  0.96426563  0.77009679  1
  C  C277  1  0.25599137  0.87827388  0.99725842  1
  C  C278  1  0.36102728  0.76546759  0.63847701  1
  C  C279  1  0.09782396  0.87890552  0.98794459  1
  H  H280  1  0.03266064  0.81496092  0.97328636  1
  C  C281  1  0.09289819  0.83482466  0.97038231  1
  C  C282  1  0.43861492  0.75061280  0.59895814  1
  N  N283  1  0.46680245  0.78128123  0.52553604  1
  H  H284  1  0.04191074  0.90102317  0.99806905  1
  N  N285  1  0.67133171  0.02018778  0.27353094  1
  C  C286  1  0.59251613  0.21483489  0.13282791  1
  N  N287  1  0.52560292  0.15764656  0.41090275  1
  N  N288  1  0.76869329  0.04900907  0.17220535  1
  C  C289  1  0.87922983  0.13163960  0.19932905  1
  H  H290  1  0.89681466  0.19402582  0.28778688  1
  C  C291  1  0.75617927  0.03379971  0.27072345  1
  H  H292  1  0.57870249  0.20359221  0.21841884  1
  N  N293  1  0.87652296  0.12018623  0.09162076  1
  H  H294  1  0.86741303  0.10886406  0.26896007  1
  C  C295  1  0.69133211  0.05120521  0.11458912  1
  C  C296  1  0.88895337  0.17360649  0.21219017  1
  N  N297  1  0.89180650  0.18777547  0.10283611  1
  C  C298  1  0.62985484  0.03148094  0.17792749  1
  H  H299  1  0.80907493  0.03175247  0.33100696  1
  N  N300  1  0.80974083  0.23484899  0.47442509  1
  H  H301  1  0.66563201  0.15169204  0.43095682  1
  H  H302  1  0.62267802  0.06752381  0.42813845  1
  N  N303  1  0.54079940  0.23789410  0.06883168  1
  C  C304  1  0.54673426  0.00117752  0.36972784  1
  N  N305  1  0.79592216  0.18434970  0.43171971  1
  H  H306  1  0.72812927  0.19916737  0.08711437  1
  C  C307  1  0.60282072  0.13666664  0.41741846  1
  H  H308  1  0.66115656  0.21387325  0.40998749  1
  C  C309  1  0.66442919  0.20971043  0.06573050  1
  C  C310  1  0.59624215  0.22683058  0.40320761  1
  H  H311  1  0.68454126  0.06850898  0.03390271  1
  H  H312  1  0.56076732  0.02268604  0.15919074  1
  C  C313  1  0.88949935  0.23033130  0.07431840  1
  Cu  Cu314  1  0.95557350  0.00357708  0.19086621  1
  C  C315  1  0.57910075  0.09585467  0.41973526  1
  C  C316  1  0.52084803  0.20174624  0.40878830  1
  N  N317  1  0.83376990  0.04259015  0.49490491  1
  C  C318  1  0.88577845  0.15404128  0.03090315  1
  H  H319  1  0.51066835  0.01001246  0.29348788  1
  H  H320  1  0.57042165  0.16103132  0.02410975  1
  C  C321  1  0.75197778  0.06422095  0.80541540  1
  Cu  Cu322  1  0.88850874  0.09912811  0.64797135  1
  N  N323  1  0.63977385  0.15283742  0.69068896  1
  H  H324  1  0.88217529  0.21762194  0.88924594  1
  C  C325  1  0.66417776  0.08269867  0.86074058  1
  N  N326  1  0.86616907  0.19523992  0.60348233  1
  H  H327  1  0.89264300  0.15234647  0.94022388  1
  Cu  Cu328  1  0.90311568  0.00879768  0.59558367  1
  H  H329  1  0.51686665  0.12163956  0.60419396  1
  Cu  Cu330  1  0.76569322  0.14757918  0.73763232  1
  C  C331  1  0.58570628  0.06461985  0.84181855  1
  N  N332  1  0.79245574  0.09253977  0.74589439  1
  C  C333  1  0.65685557  0.12011299  0.92145873  1
  N  N334  1  0.76497344  0.02498907  0.82209424  1
  N  N335  1  0.83071966  0.07864705  0.51354532  1
  C  C336  1  0.58041149  0.18234843  0.67553166  1
  N  N337  1  0.95699784  0.05196348  0.67497557  1
  C  C338  1  0.56973148  0.14129619  0.64380397  1
  N  N339  1  0.91710178  0.18384453  0.73756870  1
  C  C340  1  0.57556455  0.13193680  0.96807593  1
  C  C341  1  0.50305606  0.07100064  0.86682441  1
  H  H342  1  0.71596216  0.13926662  0.93865592  1
  N  N343  1  0.87624535  0.16282795  0.79977742  1
  C  C344  1  0.55401839  0.22584217  0.67531120  1
  C  C345  1  0.87849170  0.24044440  0.95652499  1
  C  C346  1  0.50270688  0.11138977  0.93207956  1
  C  C347  1  0.84894143  0.23483376  0.57180413  1
  C  C348  1  0.57518000  0.24363093  0.96396724  1
  N  N349  1  0.65234232  0.22685562  0.96460513  1
  N  N350  1  0.82998770  0.16196779  0.50014865  1
  C  C351  1  0.85716139  0.29992889  0.12585195  1
  C  C352  1  0.81545798  0.40571839  0.45261342  1
  Cu  Cu353  1  0.70610149  0.45378393  0.42836523  1
  C  C354  1  0.55058401  0.34604293  0.35013791  1
  H  H355  1  0.63682929  0.29184089  0.37251156  1
  C  C356  1  0.74409451  0.35982930  0.06236699  1
  Cu  Cu357  1  0.60992066  0.39927216  0.19523559  1
  Cu  Cu358  1  0.68162990  0.36697989  0.47825853  1
  N  N359  1  0.78191630  0.40115555  0.36840093  1
  C  C360  1  0.93850618  0.34862282  0.48901022  1
  N  N361  1  0.76464136  0.30809559  0.40396821  1
  H  H362  1  0.88298892  0.33638308  0.43882673  1
  N  N363  1  0.70305482  0.47038474  0.22734289  1
  H  H364  1  0.85706410  0.32580232  0.18583242  1
  Cu  Cu365  1  0.78843427  0.42641250  0.21764613  1
  N  N366  1  0.72221588  0.38130342  0.13648184  1
  C  C367  1  0.58105576  0.26768174  0.37716079  1
  N  N368  1  0.61297643  0.36436298  0.33698112  1
  Cu  Cu369  1  0.74367968  0.34833839  0.28367177  1
  N  N370  1  0.80903173  0.28015718  0.37547374  1
  N  N371  1  0.62784864  0.45859053  0.21271973  1
  H  H372  1  0.91015489  0.25250274  0.24328142  1
  H  H373  1  0.50197870  0.46658334  0.37044150  1
  C  C374  1  0.89050756  0.26198376  0.15801758  1
  C  C375  1  0.82043356  0.30559224  0.01762066  1
  C  C376  1  0.63020514  0.32008585  0.78515492  1
  C  C377  1  0.83453329  0.27634403  0.92820569  1
  N  N378  1  0.76904648  0.33618440  0.98287773  1
  H  H379  1  0.66480370  0.30670057  0.85296951  1
  Cu  Cu380  1  0.81701040  0.47100648  0.59425604  1
  N  N381  1  0.85482431  0.41081643  0.54765388  1
  C  C382  1  0.62039345  0.42318156  0.62805328  1
  H  H383  1  0.75140453  0.29738560  0.64482253  1
  N  N384  1  0.71771631  0.44084013  0.88509080  1
  H  H385  1  0.80463350  0.35975350  0.77307109  1
  C  C386  1  0.54627348  0.30878223  0.60963564  1
  C  C387  1  0.59368000  0.37876454  0.66584419  1
  H  H388  1  0.66057017  0.38663990  0.81505649  1
  C  C389  1  0.92829231  0.38544498  0.55253511  1
  C  C390  1  0.81981937  0.30320561  0.67152727  1
  N  N391  1  0.61790735  0.45825322  0.68501451  1
  C  C392  1  0.87786219  0.27101015  0.64496804  1
  H  H393  1  0.83657937  0.39829631  0.89273073  1
  N  N394  1  0.64283625  0.49507028  0.96991113  1
  C  C395  1  0.63247601  0.36213321  0.76095560  1
  N  N396  1  0.61371964  0.45235578  0.83341708  1
  C  C397  1  0.59135122  0.29325213  0.70461492  1
  H  H398  1  0.98204708  0.43175700  0.67184440  1
  C  C399  1  0.84556588  0.33514130  0.74491224  1
  C  C400  1  0.58463215  0.48656526  0.88953888  1
  N  N401  1  0.73109691  0.46411140  0.96334059  1
  C  C402  1  0.55039609  0.35051150  0.59233104  1
  H  H403  1  0.81398144  0.28000400  0.84175624  1
  C  C404  1  0.90458414  0.39383114  0.92030299  1
  C  C405  1  0.92966522  0.33327239  0.79343884  1
  N  N406  1  0.95709464  0.36366296  0.87689293  1
  N  N407  1  0.65361038  0.41898292  0.53305942  1
  C  C408  1  0.96338647  0.27330421  0.68575059  1
  N  N409  1  0.95155334  0.41594253  0.99037442  1
  C  C410  1  0.99217233  0.40362743  0.62152087  1
  C  C411  1  0.99152595  0.30337882  0.76436291  1
  H  H412  1  0.54765569  0.26091562  0.89151549  1
  N  N413  1  0.60674972  0.25151205  0.72285340  1
  H  H414  1  0.50517188  0.28969200  0.55056302  1
  H  H415  1  0.51192650  0.36370093  0.52484916  1
  N  N416  1  0.60869118  0.53986756  0.32460800  1
  C  C417  1  0.86228579  0.52011857  0.07386260  1
  H  H418  1  0.90900426  0.52980664  0.33277338  1
  N  N419  1  0.62053776  0.59762105  0.15253018  1
  N  N420  1  0.76412902  0.63748312  0.29491586  1
  Cu  Cu421  1  0.65600099  0.64954013  0.19005438  1
  N  N422  1  0.69336934  0.72011938  0.10692143  1
  N  N423  1  0.62024134  0.53412277  0.07975472  1
  N  N424  1  0.58110625  0.71019723  0.08455327  1
  C  C425  1  0.90914200  0.52471490  0.24364311  1
  Cu  Cu426  1  0.71444149  0.53062713  0.24299109  1
  N  N427  1  0.89598036  0.62338794  0.34621409  1
  C  C428  1  0.64170110  0.57371788  0.06734276  1
  C  C429  1  0.95017926  0.68767006  0.03595782  1
  N  N430  1  0.83749060  0.53744193  0.47777284  1
  N  N431  1  0.56060489  0.67764902  0.12563596  1
  C  C432  1  0.60893550  0.53096110  0.43768251  1
  Cu  Cu433  1  0.55810571  0.59087925  0.28230954  1
  Cu  Cu434  1  0.55620076  0.50878042  0.20231114  1
  C  C435  1  0.84106997  0.62670333  0.25535963  1
  C  C436  1  0.85501202  0.63329271  0.44150969  1
  H  H437  1  0.85868157  0.62023312  0.16653863  1
  C  C438  1  0.77083350  0.64088881  0.40882522  1
  H  H439  1  0.71296849  0.65156937  0.45786826  1
  C  C440  1  0.98139036  0.52243462  0.17267789  1
  N  N441  1  0.83512579  0.52374597  0.17818482  1
  H  H442  1  0.71438274  0.71674070  0.41389066  1
  H  H443  1  0.88547567  0.70038255  0.04596377  1
  N  N444  1  0.94856067  0.51879330  0.06784836  1
  C  C445  1  0.98689075  0.61073687  0.34312299  1
  N  N446  1  0.64692152  0.50049266  0.48925677  1
  C  C447  1  0.66406233  0.73973753  0.39822927  1
  H  H448  1  0.81412945  0.51160436  0.00588250  1
  H  H449  1  0.98203169  0.62424940  0.16759447  1
  C  C450  1  0.71245020  0.74975715  0.18878496  1
  N  N451  1  0.84915926  0.50093701  0.46186472  1
  C  C452  1  0.68019625  0.73848688  0.75383418  1
  C  C453  1  0.76154364  0.65410088  0.87964625  1
  C  C454  1  0.91366384  0.68777886  0.76226880  1
  C  C455  1  0.82896535  0.62872196  0.83932607  1
  N  N456  1  0.81671598  0.55187391  0.62067653  1
  C  C457  1  0.75987574  0.56691502  0.90808843  1
  N  N458  1  0.64452005  0.70576112  0.71235786  1
  N  N459  1  0.80915877  0.52121672  0.67856173  1
  N  N460  1  0.89480000  0.64678641  0.77143621  1
  C  C461  1  0.94611155  0.51084696  0.86527332  1
  H  H462  1  0.88614907  0.56730451  0.83131988  1
  H  H463  1  0.94065419  0.62047677  0.96327675  1
  C  C464  1  0.77808726  0.71420546  0.63663926  1
  H  H465  1  0.64340713  0.65531606  0.97268073  1
  H  H466  1  0.75246844  0.53368184  0.92023302  1
  H  H467  1  0.52095091  0.56421624  0.97354464  1
  H  H468  1  0.70563510  0.59303053  0.56361955  1
  H  H469  1  0.63287588  0.63549336  0.71271227  1
  H  H470  1  0.76360455  0.68763615  0.86820855  1
  C  C471  1  0.57456840  0.56428773  0.52026893  1
  C  C472  1  0.99572757  0.51441086  0.96277743  1
  C  C473  1  0.69520192  0.63424312  0.93956500  1
  H  H474  1  0.69164088  0.66125211  0.59298387  1
  H  H475  1  0.57080149  0.68362139  0.83593682  1
  C  C476  1  0.98112022  0.50227182  0.75912997  1
  C  C477  1  0.82670073  0.58504403  0.84938059  1
  H  H478  1  0.84256230  0.71270225  0.59190811  1
  H  H479  1  0.87421576  0.71134964  0.80022673  1
  C  C480  1  0.69788679  0.59161770  0.96800241  1
  C  C481  1  0.70359363  0.69070598  0.63645785  1
  H  H482  1  0.60054776  0.73654928  0.56540135  1
  C  C483  1  0.59388280  0.61421377  0.66249663  1
  C  C484  1  0.63431313  0.58939262  0.58037249  1
  C  C485  1  0.95105010  0.62621160  0.70306570  1
  H  H486  1  0.94356198  0.59326039  0.68663682  1
  Cu  Cu487  1  0.66098727  0.50725989  0.64128550  1
  C  C488  1  0.50429731  0.67219813  0.82509211  1
  H  H489  1  0.88704661  0.63448720  0.52287044  1
  C  C490  1  0.50258523  0.61306280  0.67942244  1
  N  N491  1  0.75916383  0.74486105  0.71044044  1
  N  N492  1  0.98013119  0.69259307  0.69314290  1
  N  N493  1  0.74877833  0.72889888  0.99038423  1
  C  C494  1  0.97673589  0.64934407  0.99487882  1
  H  H495  1  0.94316118  0.50009031  0.68216407  1
  H  H496  1  0.87340322  0.51542186  0.86199522  1
  H  H497  1  0.99679508  0.59146991  0.51650159  1
  H  H498  1  0.59139539  0.80198446  0.18048759  1
  H  H499  1  0.98646954  0.88100613  0.44187495  1
  C  C500  1  0.74183794  0.85517649  0.06911254  1
  C  C501  1  0.79114660  0.88315985  0.13576178  1
  H  H502  1  0.91993845  0.83460668  0.20229197  1
  C  C503  1  0.75393507  0.91949437  0.17882545  1
  C  C504  1  0.65947318  0.76019725  0.29490335  1
  C  C505  1  0.59767559  0.79145033  0.26720481  1
  H  H506  1  0.65343694  0.87670760  0.28197240  1
  C  C507  1  0.77570379  0.83400450  0.36760393  1
  H  H508  1  0.77293506  0.82835653  0.03067774  1
  C  C509  1  0.81974932  0.94824164  0.24420798  1
  H  H510  1  0.75819075  0.97736095  0.44631366  1
  N  N511  1  0.83262798  0.93443457  0.34749901  1
  N  N512  1  0.90543563  0.95788319  0.44606490  1
  C  C513  1  0.68950859  0.97996799  0.45387500  1
  C  C514  1  0.53821980  0.77861375  0.45109406  1
  C  C515  1  0.53579203  0.80142285  0.34776464  1
  C  C516  1  0.66765638  0.93336856  0.16248682  1
  H  H517  1  0.64277958  0.96287681  0.19142118  1
  N  N518  1  0.85640144  0.97389183  0.17636593  1
  N  N519  1  0.85083347  0.82373961  0.40315379  1
  H  H520  1  0.85744339  0.87496031  0.15575082  1
  H  H521  1  0.75303014  0.83001497  0.28031405  1
  N  N522  1  0.77290130  0.77332659  0.14975995  1
  C  C523  1  0.52862762  0.89916920  0.35494409  1
  H  H524  1  0.79942452  0.91010018  0.36647081  1
  H  H525  1  0.55280558  0.91531502  0.08301692  1
  C  C526  1  0.60159619  0.75004397  0.47897828  1
  C  C527  1  0.61264664  0.88093431  0.35462058  1
  C  C528  1  0.62025946  0.90642096  0.09594346  1
  C  C529  1  0.65885980  0.86912626  0.05277240  1
  Cu  Cu530  1  0.82176179  0.97921656  0.02228856  1
  H  H531  1  0.63607666  0.78003834  0.02810858  1
  C  C532  1  0.97554559  0.81321356  0.18271706  1
  C  C533  1  0.96096325  0.77129168  0.15017435  1
  H  H534  1  0.89547590  0.75969592  0.12623483  1
  C  C535  1  0.63873907  0.99763007  0.36877748  1
  C  C536  1  0.64610209  0.86847012  0.45903652  1
  N  N537  1  0.72898949  0.84856855  0.45949682  1
  H  H538  1  0.99975067  0.80601012  0.38596138  1
  N  N539  1  0.79414403  0.75875201  0.01070065  1
  C  C540  1  0.50882823  0.99497274  0.47415808  1
  N  N541  1  0.70853634  0.93917899  0.82562497  1
  N  N542  1  0.60841659  0.84361560  0.97511246  1
  H  H543  1  0.97521060  0.89812477  0.70595032  1
  H  H544  1  0.62916806  0.85868386  0.63601537  1
  C  C545  1  0.55904702  0.97962673  0.56157021  1
  N  N546  1  0.77588658  0.93780956  0.78196807  1
  Cu  Cu547  1  0.85457590  0.98529917  0.79722992  1
  C  C548  1  0.77894210  0.84596121  0.55312588  1
  C  C549  1  0.94072586  0.82011482  0.77934135  1
  N  N550  1  0.92293382  0.91478982  0.95278260  1
  C  C551  1  0.93107022  0.89519994  0.86054970  1
  C  C552  1  0.53714927  0.79265611  0.89226167  1
  C  C553  1  0.60011083  0.87070828  0.56322334  1
  H  H554  1  0.91626190  0.82483806  0.56284857  1
  C  C555  1  0.64768734  0.96918833  0.55341681  1
  C  C556  1  0.90346365  0.78467778  0.73695739  1
  C  C557  1  0.55965216  0.85958904  0.89104760  1
  C  C558  1  0.51676403  0.88454545  0.56388366  1
  N  N559  1  0.98086543  0.91300242  0.77713841  1
  C  C560  1  0.76068962  0.81209528  0.79756681  1
  C  C561  1  0.89029037  0.85248688  0.82169137  1
  H  H562  1  0.50849295  0.76267357  0.86581572  1
  C  C563  1  0.80046436  0.84887471  0.82964204  1
  H  H564  1  0.76293648  0.87494504  0.85529000  1
  C  C565  1  0.81197857  0.78005027  0.75053850  1
  H  H566  1  0.76141353  0.85819322  0.63648203  1
  N  N567  1  0.51425610  0.82836320  0.84516802  1
  C  C568  1  0.85762572  0.83187619  0.51383376  1
  N  N569  1  0.54596965  0.97064299  0.76671968  1
  H  H570  1  0.67625950  0.95438710  0.62746073  1
  H  H571  1  0.54321154  0.89264048  0.87601516  1
  C  C572  1  0.59869367  0.80124435  0.97118835  1
  H  H573  1  0.69102493  0.80966056  0.80954319  1
  C  C574  1  0.50417068  0.96942629  0.67267676  1
  Cu  Cu575  1  0.68945430  0.99175655  0.89949627  1
  N  N576  1  0.98607460  0.96286673  0.96072178  1
  H  H577  1  0.94033568  0.75978847  0.70459583  1
  N  N578  1  0.94117679  0.99219271  0.98485060  1
  N  N579  1  0.93503151  0.93240008  0.50937041  1
