# generated using pymatgen
data_CuH7C13NO4
_symmetry_space_group_name_H-M   'P 1'
_cell_length_a   17.01744532
_cell_length_b   23.64292436
_cell_length_c   14.41687212
_cell_angle_alpha   90.00000000
_cell_angle_beta   90.00000000
_cell_angle_gamma   90.00000000
_symmetry_Int_Tables_number   1
_chemical_formula_structural   CuH7C13NO4
_chemical_formula_sum   'Cu16 H112 C208 N16 O64'
_cell_volume   5800.51564950
_cell_formula_units_Z   16
loop_
 _symmetry_equiv_pos_site_id
 _symmetry_equiv_pos_as_xyz
  1  'x, y, z'
loop_
 _atom_site_type_symbol
 _atom_site_label
 _atom_site_symmetry_multiplicity
 _atom_site_fract_x
 _atom_site_fract_y
 _atom_site_fract_z
 _atom_site_occupancy
  H  H0  1  0.09630058  0.04898654  0.19886266  1
  O  O1  1  0.03421045  0.19108083  0.37482024  1
  H  H2  1  0.29373780  0.13762922  0.38967251  1
  H  H3  1  0.18682586  0.06997554  0.40382346  1
  C  C4  1  0.24600997  0.23974668  0.14615579  1
  C  C5  1  0.31683888  0.15141597  0.05418717  1
  C  C6  1  0.36691414  0.18289834  0.11097292  1
  H  H7  1  0.43215568  0.17679908  0.12532904  1
  C  C8  1  0.09181351  0.15728633  0.39273381  1
  O  O9  1  0.15021677  0.16283612  0.34886422  1
  C  C10  1  0.06401541  0.18069733  0.14218232  1
  H  H11  1  0.06599009  0.12123481  0.22137932  1
  C  C12  1  0.29687560  0.11064929  0.32107571  1
  H  H13  1  0.35547911  0.04887917  0.23742687  1
  N  N14  1  0.02126728  0.14724418  0.19335493  1
  C  C15  1  0.14597598  0.06896743  0.46165657  1
  C  C16  1  0.32774109  0.22708127  0.15262429  1
  Cu  Cu17  1  0.47643409  0.23975895  0.36472455  1
  C  C18  1  0.10677830  0.21494518  0.08472027  1
  C  C19  1  0.19754359  0.20426147  0.09626379  1
  C  C20  1  0.08559149  0.10874325  0.46195184  1
  C  C21  1  0.23253089  0.15993874  0.04514541  1
  H  H22  1  0.41988496  0.12109777  0.46288416  1
  O  O23  1  0.39693134  0.22553177  0.45270883  1
  H  H24  1  0.41350617  0.08387994  0.33611310  1
  C  C25  1  0.07676595  0.24505765  0.00368533  1
  C  C26  1  0.11249217  0.01190562  0.24403201  1
  C  C27  1  0.35829704  0.07850117  0.30089506  1
  H  H28  1  0.24929888  0.11250449  0.26806664  1
  H  H29  1  0.30885163  0.04452501  0.46535226  1
  O  O30  1  0.14281589  0.06373691  0.00365849  1
  N  N31  1  0.18820904  0.01029976  0.25847273  1
  C  C32  1  0.06950118  0.05058473  0.01736654  1
  O  O33  1  0.01530985  0.08557744  0.02678454  1
  C  C34  1  0.47281650  0.10472291  0.50545960  1
  H  H35  1  0.10793128  0.14492842  0.98966899  1
  C  C36  1  0.46429761  0.14062484  0.90135266  1
  C  C37  1  0.34909026  0.11150188  0.98685183  1
  N  N38  1  0.06617374  0.15333711  0.76142921  1
  C  C39  1  0.43469112  0.16891817  0.81531064  1
  H  H40  1  0.18747716  0.11830729  0.91801777  1
  H  H41  1  0.22031644  0.17237753  0.63125974  1
  C  C42  1  0.37930136  0.07911530  0.63581570  1
  C  C43  1  0.34231405  0.04267487  0.70127321  1
  C  C44  1  0.02182258  0.19098203  0.77397949  1
  H  H45  1  0.20976509  0.21092349  0.82974345  1
  O  O46  1  0.43959113  0.11892081  0.97636865  1
  C  C47  1  0.22985801  0.09610502  0.71576373  1
  H  H48  1  0.04665609  0.11517937  0.74472362  1
  C  C49  1  0.15426538  0.02430228  0.52646659  1
  C  C50  1  0.03271898  0.06072194  0.59292977  1
  C  C51  1  0.25765860  0.13466312  0.64937841  1
  H  H52  1  0.17129663  0.10036568  0.75390855  1
  H  H53  1  0.35813819  0.15093306  0.55496555  1
  N  N54  1  0.27385498  0.05315806  0.74248282  1
  C  C55  1  0.33050272  0.12425883  0.60576254  1
  H  H56  1  0.40167046  0.14129202  0.75933004  1
  C  C57  1  0.45982032  0.07746788  0.59365397  1
  H  H58  1  0.42641005  0.22236660  0.62099901  1
  C  C59  1  0.41678564  0.23161874  0.80196318  1
  C  C60  1  0.09651824  0.02377664  0.59560104  1
  C  C61  1  0.36886878  0.23685498  0.64286931  1
  O  O62  1  0.31613323  0.08439083  0.93124904  1
  C  C63  1  0.17113191  0.12683784  0.99244575  1
  C  C64  1  0.02493283  0.10345672  0.52679918  1
  H  H65  1  0.36169130  0.00133652  0.71569895  1
  C  C66  1  0.34860560  0.23868404  0.73550260  1
  H  H67  1  0.43766144  0.42535999  0.06963679  1
  Cu  Cu68  1  0.34706299  0.34942732  0.35883337  1
  O  O69  1  0.29869129  0.28800957  0.42614837  1
  N  N70  1  0.34761954  0.39962788  0.48022832  1
  O  O71  1  0.33708145  0.30339644  0.25037693  1
  O  O72  1  0.44795006  0.38501808  0.33068356  1
  H  H73  1  0.32226948  0.27745942  0.01054039  1
  C  C74  1  0.37465433  0.26334752  0.21468869  1
  C  C75  1  0.33687195  0.25578544  0.47898044  1
  H  H76  1  0.22975506  0.41432372  0.48696938  1
  H  H77  1  0.22402268  0.27912369  0.17941464  1
  N  N78  1  0.38436663  0.40927338  0.05105613  1
  H  H79  1  0.44019000  0.33157703  0.07556412  1
  C  C80  1  0.24885913  0.35301498  0.00566615  1
  C  C81  1  0.31566678  0.32295712  0.01958600  1
  C  C82  1  0.38356709  0.35228998  0.05145458  1
  C  C83  1  0.25044137  0.41417799  0.00906942  1
  O  O84  1  0.44357517  0.25172187  0.23390660  1
  H  H85  1  0.33383667  0.48402406  0.05720757  1
  H  H86  1  0.46143446  0.38453376  0.49077926  1
  C  C87  1  0.32114444  0.43921137  0.04298911  1
  H  H88  1  0.09600327  0.37574656  0.00317681  1
  C  C89  1  0.28765127  0.43124669  0.51186881  1
  H  H90  1  0.24056990  0.49504761  0.60296553  1
  H  H91  1  0.47243584  0.45814925  0.77799549  1
  H  H92  1  0.31382647  0.31244486  0.78641679  1
  C  C93  1  0.22417019  0.29367225  0.69043089  1
  C  C94  1  0.15075553  0.31348099  0.73251530  1
  C  C95  1  0.29381963  0.47133335  0.58442512  1
  C  C96  1  0.32054974  0.26181141  0.57513550  1
  O  O97  1  0.09734361  0.33980733  0.70691385  1
  C  C98  1  0.27936007  0.27360307  0.76468080  1
  H  H99  1  0.21296282  0.30274853  0.54359256  1
  C  C100  1  0.36467608  0.48390258  0.63077423  1
  C  C101  1  0.10324092  0.42116558  0.98789266  1
  C  C102  1  0.24915916  0.29011941  0.60115710  1
  C  C103  1  0.42602671  0.44954596  0.59372129  1
  O  O104  1  0.16203681  0.29416841  0.84295018  1
  C  C105  1  0.08695898  0.27394539  0.91404753  1
  C  C106  1  0.41760702  0.41253025  0.51898774  1
  C  C107  1  0.44968968  0.27940509  0.83084670  1
  H  H108  1  0.44764639  0.35747264  0.81004495  1
  C  C109  1  0.04158320  0.45670280  0.97203930  1
  H  H110  1  0.27191205  0.25145996  0.90807935  1
  C  C111  1  0.01001911  0.25937093  0.95611168  1
  C  C112  1  0.17885300  0.44698174  0.98799737  1
  N  N113  1  0.47624822  0.32802494  0.85201302  1
  C  C114  1  0.00607940  0.27727299  0.85977848  1
  H  H115  1  0.19667455  0.33067650  0.97873689  1
  C  C116  1  0.23376505  0.25376202  0.84588942  1
  C  C117  1  0.34436947  0.73329651  0.32274901  1
  C  C118  1  0.40941591  0.73752912  0.47412467  1
  N  N119  1  0.27979800  0.69524536  0.09614415  1
  C  C120  1  0.41424412  0.69950354  0.29078832  1
  C  C121  1  0.28205139  0.71861874  0.17065901  1
  H  H122  1  0.05256423  0.68555026  0.40478339  1
  Cu  Cu123  1  0.15894475  0.66965251  0.07748737  1
  C  C124  1  0.47298406  0.70397242  0.44533351  1
  C  C125  1  0.28224564  0.74656445  0.25672098  1
  O  O126  1  0.12520135  0.73816827  0.29821960  1
  C  C127  1  0.47307252  0.67778372  0.35995452  1
  C  C128  1  0.00401401  0.67150678  0.35610770  1
  O  O129  1  0.10163816  0.71948165  0.14976602  1
  H  H130  1  0.32568378  0.66215730  0.10133406  1
  C  C131  1  0.08422912  0.71400474  0.23346048  1
  H  H132  1  0.39238967  0.66268479  0.24928249  1
  C  C133  1  0.01331357  0.68628430  0.26329153  1
  C  C134  1  0.44447444  0.73809365  0.20967262  1
  H  H135  1  0.40357094  0.73891681  0.15420258  1
  C  C136  1  0.34031842  0.74707253  0.41732912  1
  Cu  Cu137  1  0.25819035  0.69123056  0.95512262  1
  C  C138  1  0.31932478  0.59221717  0.79927710  1
  C  C139  1  0.22932010  0.60950028  0.67189713  1
  O  O140  1  0.43687393  0.72401085  0.88264201  1
  O  O141  1  0.07721410  0.63128143  0.91277176  1
  H  H142  1  0.33121647  0.58018304  0.87023176  1
  H  H143  1  0.26153153  0.63354466  0.55170127  1
  C  C144  1  0.46372272  0.60867672  0.76507157  1
  C  C145  1  0.04572039  0.51489491  0.94881590  1
  C  C146  1  0.12809839  0.60294140  0.94226341  1
  H  H147  1  0.17252620  0.60462676  0.63664442  1
  H  H148  1  0.44259757  0.59631020  0.91238645  1
  C  C149  1  0.38090050  0.60534543  0.73237655  1
  C  C150  1  0.36146711  0.62653185  0.64273678  1
  H  H151  1  0.40085427  0.64021916  0.58570246  1
  N  N152  1  0.28698658  0.62369061  0.61382519  1
  C  C153  1  0.11902914  0.53861092  0.95301613  1
  O  O154  1  0.46018588  0.73798752  0.62453387  1
  H  H155  1  0.19562412  0.58391392  0.81551796  1
  Cu  Cu156  1  0.44642265  0.72896773  0.75288214  1
  C  C157  1  0.48576293  0.60016417  0.85684384  1
  O  O158  1  0.19441411  0.62575128  0.98567784  1
  C  C159  1  0.18497413  0.50596565  0.97393810  1
  C  C160  1  0.24249549  0.59320025  0.76634996  1
  H  H161  1  0.24078813  0.52576610  0.98176539  1
  H  H162  1  0.36900673  0.51476522  0.68774665  1
  C  C163  1  0.40737358  0.85605727  0.13233091  1
  H  H164  1  0.21467922  0.79883357  0.34565831  1
  C  C165  1  0.16117943  0.92530541  0.34856974  1
  C  C166  1  0.07909009  0.92625183  0.33160446  1
  C  C167  1  0.18827619  0.81984949  0.20428767  1
  H  H168  1  0.11510375  0.95705475  0.11329334  1
  C  C169  1  0.22011599  0.86331203  0.15541723  1
  C  C170  1  0.05662279  0.97275197  0.27699443  1
  C  C171  1  0.45350821  0.79944501  0.25256378  1
  C  C172  1  0.05261651  0.85798479  0.13732855  1
  O  O173  1  0.26835526  0.90018763  0.13447039  1
  O  O174  1  0.37119827  0.91997736  0.24785177  1
  C  C175  1  0.02277763  0.90029880  0.06889650  1
  C  C176  1  0.35456747  0.89462182  0.18049762  1
  C  C177  1  0.21067121  0.96654414  0.30909620  1
  C  C178  1  0.06496450  0.95231667  0.06936225  1
  C  C179  1  0.13830038  0.83969205  0.12673715  1
  H  H180  1  0.18096639  0.88814005  0.38926299  1
  H  H181  1  0.48416133  0.79639140  0.31916496  1
  C  C182  1  0.38470350  0.82788626  0.05405991  1
  H  H183  1  0.39314113  0.81130084  0.26682899  1
  H  H184  1  0.28633135  0.76737358  0.44565468  1
  H  H185  1  0.14479863  0.81479809  0.06170267  1
  H  H186  1  0.03500209  0.89965815  0.36133072  1
  H  H187  1  0.32287008  0.83285737  0.02864448  1
  C  C188  1  0.20288443  0.77677539  0.27681947  1
  H  H189  1  0.27287022  0.96643030  0.30069118  1
  C  C190  1  0.48674077  0.84177529  0.17294958  1
  C  C191  1  0.00041160  0.83148644  0.19395918  1
  C  C192  1  0.03817998  0.99506976  0.01395255  1
  C  C193  1  0.32722595  0.90088981  0.49995897  1
  C  C194  1  0.29358781  0.99953620  0.48136323  1
  C  C195  1  0.34909961  0.95639378  0.47516905  1
  H  H196  1  0.40934990  0.96614989  0.45444417  1
  C  C197  1  0.43359848  0.78680477  0.01158869  1
  C  C198  1  0.21715007  0.97993304  0.51183052  1
  H  H199  1  0.10139002  0.99340786  0.65212550  1
  O  O200  1  0.35190364  0.78866075  0.59586523  1
  O  O201  1  0.03070762  0.80749292  0.60856100  1
  C  C202  1  0.20614202  0.92208726  0.54002444  1
  H  H203  1  0.15285840  0.90058228  0.56388794  1
  C  C204  1  0.40337886  0.75681452  0.57128485  1
  O  O205  1  0.32214475  0.75448851  0.93533119  1
  C  C206  1  0.39686732  0.75515545  0.93599945  1
  N  N207  1  0.25768954  0.88116995  0.52121220  1
  H  H208  1  0.36408501  0.86457934  0.50036389  1
  O  O209  1  0.76925233  0.12093025  0.28360681  1
  C  C210  1  0.81894830  0.02002040  0.22212611  1
  C  C211  1  0.84205260  0.11403733  0.29089134  1
  O  O212  1  0.90248532  0.16259355  0.07096036  1
  O  O213  1  0.88690409  0.14903262  0.33058956  1
  C  C214  1  0.87082970  0.05704268  0.26711592  1
  C  C215  1  0.94763139  0.04137108  0.28462596  1
  O  O216  1  0.88020431  0.22394209  0.17981324  1
  C  C217  1  0.56008116  0.13757836  0.38058906  1
  Cu  Cu218  1  0.95552734  0.20539304  0.27651704  1
  C  C219  1  0.78087937  0.20508070  0.05866133  1
  C  C220  1  0.85480843  0.19696740  0.10822655  1
  O  O221  1  0.62807838  0.13573676  0.34821511  1
  Cu  Cu222  1  0.72623263  0.16289599  0.38154675  1
  H  H223  1  0.75451555  0.03334314  0.21297544  1
  Cu  Cu224  1  0.94505456  0.09370708  0.13226088  1
  O  O225  1  0.50422056  0.16423435  0.34483286  1
  C  C226  1  0.54822121  0.10649238  0.47055450  1
  C  C227  1  0.73180783  0.24806762  0.08555254  1
  H  H228  1  0.99290346  0.06623693  0.32390402  1
  H  H229  1  0.66981510  0.07830376  0.49008311  1
  H  H230  1  0.94962384  0.23756010  0.46547225  1
  C  C231  1  0.63772459  0.21830449  0.96646216  1
  O  O232  1  0.91444248  0.08371028  0.68561069  1
  Cu  Cu233  1  0.81559160  0.06041074  0.64315652  1
  C  C234  1  0.66104916  0.02354459  0.64950000  1
  H  H235  1  0.82743040  0.06907453  0.81857177  1
  O  O236  1  0.72725008  0.02430236  0.60688171  1
  C  C237  1  0.82266043  0.19888011  0.89945600  1
  C  C238  1  0.75032545  0.24504537  0.64963310  1
  H  H239  1  0.91795874  0.17085280  0.65887190  1
  H  H240  1  0.69481913  0.24986121  0.60578464  1
  N  N241  1  0.77624768  0.06498837  0.78419376  1
  H  H242  1  0.60639647  0.15234500  0.72364280  1
  C  C243  1  0.51946415  0.15272743  0.83248099  1
  C  C244  1  0.89371221  0.23902669  0.75162244  1
  C  C245  1  0.97722412  0.05181980  0.67451542  1
  O  O246  1  0.82911614  0.11592637  0.55053912  1
  C  C247  1  0.67034484  0.13963533  0.85061125  1
  C  C248  1  0.72666514  0.10185530  0.81318217  1
  C  C249  1  0.59601719  0.14754740  0.79842536  1
  C  C250  1  0.60903337  0.07947264  0.51886891  1
  C  C251  1  0.97318148  0.23728258  0.78923128  1
  C  C252  1  0.78656999  0.15960266  0.56031690  1
  H  H253  1  0.81251084  0.17208027  0.83495902  1
  H  H254  1  0.96276098  0.01801876  0.90245575  1
  C  C255  1  0.68768128  0.17780300  0.93289382  1
  C  C256  1  0.59670492  0.05077984  0.60375952  1
  H  H257  1  0.88728289  0.19338886  0.91974635  1
  C  C258  1  0.80414095  0.20055397  0.63003311  1
  C  C259  1  0.87460826  0.20128698  0.68373342  1
  H  H260  1  0.57618891  0.22075211  0.93439583  1
  O  O261  1  0.72353212  0.16727383  0.50949486  1
  H  H262  1  0.97539294  0.13129545  0.51716413  1
  C  C263  1  0.51994650  0.04968915  0.63988106  1
  O  O264  1  0.65742628  0.00002153  0.72743533  1
  C  C265  1  0.76670271  0.17583362  0.97302729  1
  H  H266  1  0.51162615  0.02856977  0.70626878  1
  H  H267  1  0.78764615  0.12979246  0.97732327  1
  O  O268  1  0.98562959  0.01218679  0.72369452  1
  H  H269  1  0.54963177  0.43375577  0.21973546  1
  C  C270  1  0.58835620  0.37733523  0.32772255  1
  C  C271  1  0.59989423  0.41823753  0.26116706  1
  C  C272  1  0.72670352  0.36759616  0.34662139  1
  N  N273  1  0.89907565  0.26622051  0.35850751  1
  C  C274  1  0.90446901  0.26942212  0.44929122  1
  H  H275  1  0.84248202  0.30644463  0.25254258  1
  O  O276  1  0.62371968  0.32471541  0.13550867  1
  O  O277  1  0.55107812  0.31954394  0.00903423  1
  C  C278  1  0.60940303  0.30343866  0.06255100  1
  C  C279  1  0.67677856  0.43585439  0.23989014  1
  C  C280  1  0.74426119  0.41209592  0.28629961  1
  H  H281  1  0.74547080  0.27584588  0.14750463  1
  H  H282  1  0.80304158  0.42624047  0.27219360  1
  C  C283  1  0.68848703  0.48181374  0.17459128  1
  C  C284  1  0.65047614  0.34995401  0.37355214  1
  H  H285  1  0.63705585  0.31411638  0.41936541  1
  Cu  Cu286  1  0.82967070  0.48239980  0.06066488  1
  C  C287  1  0.79586134  0.33531297  0.38721395  1
  C  C288  1  0.84550766  0.30465543  0.32884535  1
  O  O289  1  0.50228495  0.31388640  0.40003508  1
  C  C290  1  0.50698636  0.35573677  0.34830293  1
  C  C291  1  0.80636233  0.33882623  0.48528985  1
  O  O292  1  0.62631894  0.49911774  0.13001677  1
  O  O293  1  0.70607055  0.48854660  0.45965613  1
  O  O294  1  0.75665706  0.49699757  0.16286530  1
  C  C295  1  0.65963202  0.25419471  0.03792645  1
  H  H296  1  0.56043074  0.47605371  0.49357186  1
  O  O297  1  0.69017787  0.34299351  0.83433245  1
  C  C298  1  0.82950540  0.27791544  0.78492971  1
  C  C299  1  0.59762969  0.47260273  0.75851428  1
  O  O300  1  0.64440260  0.33079100  0.69402679  1
  O  O301  1  0.90013029  0.46621058  0.96521365  1
  H  H302  1  0.98602877  0.32229233  0.84395764  1
  O  O303  1  0.94762441  0.38351382  0.99289898  1
  O  O304  1  0.57029459  0.42908879  0.90758879  1
  C  C305  1  0.51878294  0.46477511  0.72763477  1
  O  O306  1  0.68325511  0.46987155  0.87820598  1
  C  C307  1  0.69295146  0.31928876  0.75095273  1
  C  C308  1  0.61553758  0.45617481  0.85303103  1
  Cu  Cu309  1  0.58936757  0.35091554  0.90009403  1
  C  C310  1  0.56935498  0.47561995  0.57248325  1
  H  H311  1  0.85708942  0.32118834  0.78717757  1
  H  H312  1  0.82225943  0.28870929  0.93854336  1
  C  C313  1  0.95780060  0.43119428  0.97404613  1
  C  C314  1  0.75924004  0.27991768  0.72123457  1
  C  C315  1  0.64136684  0.48951999  0.60593673  1
  H  H316  1  0.73144995  0.26620337  0.88294149  1
  H  H317  1  0.87860784  0.29817517  0.58895567  1
  C  C318  1  0.86266531  0.30145318  0.51624332  1
  H  H319  1  0.76995580  0.36626440  0.52946755  1
  C  C320  1  0.65783778  0.48815137  0.70095931  1
  C  C321  1  0.79770662  0.26227203  0.88081757  1
  H  H322  1  0.72020350  0.49519816  0.72529359  1
  C  C323  1  0.50813898  0.45959034  0.63354448  1
  C  C324  1  0.71057576  0.49871679  0.53937744  1
  Cu  Cu325  1  0.57009124  0.56796768  0.15867322  1
  H  H326  1  0.77621246  0.70318778  0.23282430  1
  N  N327  1  0.81512440  0.56366533  0.01189879  1
  C  C328  1  0.53097277  0.64402326  0.30653513  1
  H  H329  1  0.96566738  0.68134615  0.12245144  1
  H  H330  1  0.83118279  0.59705736  0.33664823  1
  O  O331  1  0.59008701  0.62963973  0.34455677  1
  C  C332  1  0.94012098  0.63861030  0.38088216  1
  C  C333  1  0.93665021  0.61409252  0.47598756  1
  C  C334  1  0.89377185  0.63713070  0.22332442  1
  C  C335  1  0.88507288  0.61952007  0.31381020  1
  O  O336  1  0.53282964  0.58382543  0.03672536  1
  C  C337  1  0.72720606  0.70378959  0.09528576  1
  C  C338  1  0.95979974  0.66798393  0.19410796  1
  C  C339  1  0.82791814  0.63833309  0.14854073  1
  O  O340  1  0.52231516  0.62803877  0.21446541  1
  C  C341  1  0.82079089  0.59932034  0.07506515  1
  C  C342  1  0.77420574  0.68344079  0.16629365  1
  H  H343  1  0.50009283  0.72447680  0.18254382  1
  H  H344  1  0.52202239  0.69299068  0.49261969  1
  C  C345  1  0.68491166  0.71403668  0.01082856  1
  H  H346  1  0.54446027  0.74366981  0.00779863  1
  O  O347  1  0.87773773  0.57885952  0.49012237  1
  Cu  Cu348  1  0.79930605  0.59312057  0.56755635  1
  O  O349  1  0.97848950  0.62817540  0.53785972  1
  H  H350  1  0.69407343  0.61345262  0.83517933  1
  C  C351  1  0.63030967  0.61294977  0.82035912  1
  C  C352  1  0.60488790  0.61931664  0.72812377  1
  O  O353  1  0.77449637  0.51683605  0.58232822  1
  O  O354  1  0.62203680  0.62077142  0.56733888  1
  C  C355  1  0.65329016  0.62340278  0.63994598  1
  O  O356  1  0.73046415  0.62925787  0.64815020  1
  H  H357  1  0.99100099  0.53860169  0.93147112  1
  C  C358  1  0.56668189  0.60345289  0.87740023  1
  H  H359  1  0.85629674  0.57305228  0.95888338  1
  Cu  Cu360  1  0.70756416  0.52482797  0.97460632  1
  H  H361  1  0.64319661  0.69008895  0.96161005  1
  H  H362  1  0.51365761  0.61123685  0.62517172  1
  C  C363  1  0.58632945  0.59440560  0.97639322  1
  H  H364  1  0.59935611  0.73013956  0.66661915  1
  C  C365  1  0.52615529  0.61686059  0.70247374  1
  O  O366  1  0.65809203  0.59297808  0.99293068  1
  C  C367  1  0.97014021  0.98720188  0.25528465  1
  O  O368  1  0.71906930  0.93185227  0.12548628  1
  N  N369  1  0.94678714  0.81737895  0.24214540  1
  H  H370  1  0.60588282  0.75885177  0.30231929  1
  C  C371  1  0.54366816  0.80532595  0.11420680  1
  C  C372  1  0.78312102  0.91981382  0.15312995  1
  C  C373  1  0.51080975  0.77568023  0.03919219  1
  C  C374  1  0.83993253  0.96421848  0.19650784  1
  N  N375  1  0.71163195  0.78970788  0.27337354  1
  O  O376  1  0.80652036  0.86692359  0.14558334  1
  C  C377  1  0.66941704  0.75038040  0.08464423  1
  C  C378  1  0.78739978  0.77882683  0.41933365  1
  C  C379  1  0.61879739  0.78393785  0.14404906  1
  H  H380  1  0.93759557  0.90802590  0.20017173  1
  C  C381  1  0.64228959  0.77413527  0.24545124  1
  Cu  Cu382  1  0.82641888  0.82890193  0.25386962  1
  O  O383  1  0.71925303  0.77170160  0.39078051  1
  O  O384  1  0.84560235  0.79024913  0.36484933  1
  C  C385  1  0.91670201  0.94948386  0.21310579  1
  H  H386  1  0.95759267  0.77536538  0.26703531  1
  H  H387  1  0.51496352  0.88082355  0.19860849  1
  H  H388  1  0.93235520  0.84531751  0.00501188  1
  H  H389  1  0.93362192  0.79531855  0.49038938  1
  C  C390  1  0.96287707  0.88568460  0.00326013  1
  Cu  Cu391  1  0.74898578  0.97973643  0.78556146  1
  O  O392  1  0.84066829  0.96580461  0.83786436  1
  C  C393  1  0.69031381  0.77615277  0.74496846  1
  H  H394  1  0.65912384  0.82865435  0.96157403  1
  H  H395  1  0.68618232  0.76982515  0.54899180  1
  C  C396  1  0.86841100  0.92206310  0.88639580  1
  C  C397  1  0.64744334  0.81162589  0.89189004  1
  H  H398  1  0.77274897  0.81179341  0.85732747  1
  C  C399  1  0.57158511  0.79545157  0.85590306  1
  C  C400  1  0.71122810  0.80217894  0.83344218  1
  C  C401  1  0.97828318  0.98307927  0.95211526  1
  N  N402  1  0.55523038  0.76239424  0.78473728  1
  C  C403  1  0.74204721  0.77582913  0.57938175  1
  C  C404  1  0.98276810  0.79449488  0.66665978  1
  C  C405  1  0.75865428  0.77692181  0.67494849  1
  O  O406  1  0.83633192  0.87745191  0.88183425  1
  C  C407  1  0.89761858  0.78935250  0.63821942  1
  H  H408  1  0.85397971  0.77702120  0.77243817  1
  C  C409  1  0.93481183  0.93253042  0.95208194  1
  C  C410  1  0.83754979  0.78377360  0.70310949  1
  C  C411  1  0.88560758  0.79334989  0.54374594  1
  C  C412  1  0.61624446  0.75562367  0.72557415  1
  H  H413  1  0.51473209  0.80056912  0.88862785  1
  O  O414  1  0.99939329  0.78784919  0.75144350  1
  C  C415  1  0.80693372  0.78149276  0.51851426  1
