# generated using pymatgen
data_CuH6C12(NO2)2
_symmetry_space_group_name_H-M   'P 1'
_cell_length_a   37.73385425
_cell_length_b   16.50472592
_cell_length_c   6.86465597
_cell_angle_alpha   90.00000000
_cell_angle_beta   90.00000000
_cell_angle_gamma   90.00000000
_symmetry_Int_Tables_number   1
_chemical_formula_structural   CuH6C12(NO2)2
_chemical_formula_sum   'Cu8 H48 C96 N16 O32'
_cell_volume   4275.21796463
_cell_formula_units_Z   8
loop_
 _symmetry_equiv_pos_site_id
 _symmetry_equiv_pos_as_xyz
  1  'x, y, z'
loop_
 _atom_site_type_symbol
 _atom_site_label
 _atom_site_symmetry_multiplicity
 _atom_site_fract_x
 _atom_site_fract_y
 _atom_site_fract_z
 _atom_site_occupancy
  N  N0  1  0.00852295  0.58916068  0.35879433  1
  H  H1  1  0.05015891  0.67658000  0.28424943  1
  C  C2  1  0.02292059  0.66401413  0.34134362  1
  N  N3  1  0.01054946  0.73600390  0.37979508  1
  O  O4  1  0.41716753  0.11122029  0.37216106  1
  H  H5  1  0.37654215  0.22513757  0.35205201  1
  C  C6  1  0.44009961  0.15909141  0.35049987  1
  C  C7  1  0.45885964  0.30528469  0.35819306  1
  C  C8  1  0.41538784  0.41122547  0.41420535  1
  C  C9  1  0.43128313  0.24898286  0.37397824  1
  C  C10  1  0.39587688  0.27116424  0.37153344  1
  C  C11  1  0.38828276  0.35418124  0.39426889  1
  C  C12  1  0.47924563  0.44692388  0.40850783  1
  C  C13  1  0.45067438  0.38586828  0.39647123  1
  O  O14  1  0.47281414  0.13675486  0.32099864  1
  Cu  Cu15  1  0.48231535  0.02967244  0.29337960  1
  H  H16  1  0.48735076  0.28749547  0.33005291  1
  H  H17  1  0.32105260  0.28227534  0.24938586  1
  C  C18  1  0.35211243  0.38732170  0.37429402  1
  H  H19  1  0.41142939  0.47914599  0.42920587  1
  C  C20  1  0.32142110  0.34447759  0.30612888  1
  N  N21  1  0.29259741  0.38741093  0.29164216  1
  C  C22  1  0.29264331  0.46461452  0.34590778  1
  H  H23  1  0.26593453  0.49298546  0.33764344  1
  H  H24  1  0.49598861  0.44688766  0.00502902  1
  C  C25  1  0.34864383  0.47278870  0.42076327  1
  H  H26  1  0.35693701  0.39935254  0.00907676  1
  H  H27  1  0.44973791  0.48917105  0.91382588  1
  C  C28  1  0.43395638  0.42976327  0.91439543  1
  N  N29  1  0.40106412  0.44666006  0.95199963  1
  H  H30  1  0.42482044  0.22465134  0.79731756  1
  C  C31  1  0.42101704  0.28649568  0.85501066  1
  N  N32  1  0.38839843  0.30321060  0.89641340  1
  C  C33  1  0.38239790  0.38073198  0.94582167  1
  C  C34  1  0.44633410  0.35060359  0.86860104  1
  C  C35  1  0.48554086  0.33636243  0.83544487  1
  H  H36  1  0.48147448  0.22697106  0.68094136  1
  Cu  Cu37  1  0.49718331  0.60630559  0.47780527  1
  O  O38  1  0.46839717  0.51751832  0.45716996  1
  O  O39  1  0.49128025  0.92081764  0.28965174  1
  H  H40  1  0.48015441  0.79561931  0.11243369  1
  N  N41  1  0.31912483  0.51236541  0.40854155  1
  H  H42  1  0.36641272  0.51819810  0.48572394  1
  C  C43  1  0.49205411  0.65673259  0.88689284  1
  O  O44  1  0.46172247  0.67311002  0.91547317  1
  H  H45  1  0.63578782  0.27899219  0.23886831  1
  N  N46  1  0.65011926  0.04596011  0.43747337  1
  Cu  Cu47  1  0.54102188  0.03497448  0.49414946  1
  H  H48  1  0.73111950  0.18323117  0.25441843  1
  C  C49  1  0.65872060  0.43053936  0.32976178  1
  C  C50  1  0.67258647  0.38096311  0.16400716  1
  C  C51  1  0.73846822  0.15170431  0.12401080  1
  C  C52  1  0.56492890  0.45248840  0.01253419  1
  H  H53  1  0.61053106  0.35788486  0.39889283  1
  C  C54  1  0.62706277  0.40602265  0.44797631  1
  O  O55  1  0.51088412  0.42827677  0.39138444  1
  C  C56  1  0.69328119  0.04082521  0.19163246  1
  H  H57  1  0.68642524  0.14082453  0.41677422  1
  C  C58  1  0.67772476  0.08196260  0.35313281  1
  C  C59  1  0.72251344  0.07694396  0.07638067  1
  C  C60  1  0.65689546  0.30208318  0.15051878  1
  O  O61  1  0.59922000  0.46139875  0.01141458  1
  O  O62  1  0.61822072  0.16395291  0.05399729  1
  C  C63  1  0.67531340  0.49923462  0.39582952  1
  H  H64  1  0.70912173  0.46723246  0.03435237  1
  C  C65  1  0.69851073  0.40542515  0.03603191  1
  O  O66  1  0.64957233  0.14088164  0.78931762  1
  C  C67  1  0.55198551  0.18769722  0.64905459  1
  C  C68  1  0.62917894  0.49245108  0.60656268  1
  C  C69  1  0.54383753  0.38847058  0.91449069  1
  C  C70  1  0.66376106  0.25686273  0.98526580  1
  C  C71  1  0.73651994  0.37725119  0.75147406  1
  H  H72  1  0.69653164  0.23986701  0.73194142  1
  C  C73  1  0.70938639  0.35213807  0.88651644  1
  C  C74  1  0.53692610  0.26345750  0.73346597  1
  H  H75  1  0.58813413  0.32133072  0.80257205  1
  Cu  Cu76  1  0.61411216  0.09849739  0.63938985  1
  C  C77  1  0.55858859  0.32571356  0.80907742  1
  C  C78  1  0.73007761  0.03919240  0.89628816  1
  C  C79  1  0.50664605  0.39388322  0.92853409  1
  C  C80  1  0.69005528  0.28095651  0.85340610  1
  C  C81  1  0.64150103  0.18103439  0.94882661  1
  H  H82  1  0.60741040  0.41575078  0.91375381  1
  O  O83  1  0.58398358  0.18398861  0.60386400  1
  N  N84  1  0.60850994  0.43576106  0.59755194  1
  O  O85  1  0.53171496  0.12823045  0.62196164  1
  O  O86  1  0.74168189  0.33068567  0.60397603  1
  C  C87  1  0.50015007  0.27074276  0.74090806  1
  O  O88  1  0.72400282  0.66608909  0.06314272  1
  N  N89  1  0.66740208  0.62306314  0.03568132  1
  C  C90  1  0.52393079  0.90070121  0.26771869  1
  C  C91  1  0.57140588  0.80692037  0.16354761  1
  N  N92  1  0.67942967  0.76004675  0.10668486  1
  N  N93  1  0.65079562  0.93054835  0.21297336  1
  C  C94  1  0.63329170  0.62899382  0.02861815  1
  C  C95  1  0.57951009  0.73416955  0.07640169  1
  H  H96  1  0.59274721  0.84592081  0.21352715  1
  C  C97  1  0.64504741  0.76313435  0.09244185  1
  O  O98  1  0.54787440  0.94645540  0.33218989  1
  C  C99  1  0.68893393  0.68542417  0.07180920  1
  O  O100  1  0.74571555  0.79564404  0.04526180  1
  H  H101  1  0.61483754  0.95052358  0.41209335  1
  C  C102  1  0.67912003  0.96211080  0.14341047  1
  C  C103  1  0.53466336  0.82674601  0.16602031  1
  H  H104  1  0.69793328  0.53766263  0.35082330  1
  O  O105  1  0.57476689  0.59832448  0.44127481  1
  C  C106  1  0.61740469  0.70614029  0.06009169  1
  C  C107  1  0.56468028  0.66892718  0.49464361  1
  C  C108  1  0.50769532  0.77693327  0.09892664  1
  O  O109  1  0.53156171  0.68422301  0.48273487  1
  C  C110  1  0.63976321  0.97522091  0.35721404  1
  H  H111  1  0.63946956  0.82593088  0.11761910  1
  H  H112  1  0.68914313  0.91748141  0.02671360  1
  H  H113  1  0.62136775  0.57179859  0.01728550  1
  H  H114  1  0.63340674  0.65485761  0.49257713  1
  Cu  Cu115  1  0.54545574  0.51156886  0.40622457  1
  O  O116  1  0.54778086  0.50277820  0.11421134  1
  H  H117  1  0.65757194  0.89498780  0.72673113  1
  C  C118  1  0.64908974  0.77292394  0.61478644  1
  C  C119  1  0.71215211  0.82343466  0.60323282  1
  O  O120  1  0.61354245  0.99762609  0.76382572  1
  C  C121  1  0.58934456  0.94568861  0.73108236  1
  H  H122  1  0.54866331  0.82487151  0.62071992  1
  N  N123  1  0.74652262  0.81363431  0.58856792  1
  C  C124  1  0.62467423  0.71343941  0.54992753  1
  O  O125  1  0.55777241  0.96888007  0.71370465  1
  H  H126  1  0.68224624  0.62109842  0.59252280  1
  C  C127  1  0.51840511  0.70838656  0.99459786  1
  C  C128  1  0.55389500  0.68489036  0.98773517  1
  C  C129  1  0.60097780  0.86279976  0.68690843  1
  H  H130  1  0.70260189  0.88713288  0.60120458  1
  H  H131  1  0.74286728  0.60755726  0.57057576  1
  C  C132  1  0.69980044  0.67427278  0.59441708  1
  C  C133  1  0.63755907  0.84684378  0.68884023  1
  C  C134  1  0.68759056  0.75648914  0.59937567  1
  N  N135  1  0.73434791  0.66445544  0.56780907  1
  H  H136  1  0.55903073  0.62817196  0.90554277  1
  N  N137  1  0.65700473  0.53124686  0.55317432  1
  C  C138  1  0.57604819  0.80854999  0.62681012  1
  H  H139  1  0.71969465  0.98040382  0.85107319  1
  C  C140  1  0.58876399  0.73150316  0.55770827  1
  O  O141  1  0.50344834  0.60328379  0.75996533  1
  O  O142  1  0.84998399  0.44913950  0.23708770  1
  Cu  Cu143  1  0.76506967  0.38598063  0.40872719  1
  C  C144  1  0.77938114  0.26618422  0.08095411  1
  O  O145  1  0.79185932  0.44980941  0.23630925  1
  C  C146  1  0.76381564  0.18952896  0.00965332  1
  O  O147  1  0.77370784  0.29010845  0.25148155  1
  C  C148  1  0.82307276  0.48698091  0.23190058  1
  Cu  Cu149  1  0.80667250  0.41189429  0.89835435  1
  H  H150  1  0.79123704  0.18133972  0.73352793  1
  O  O151  1  0.75803599  0.43175004  0.79495009  1
  C  C152  1  0.76891334  0.04026525  0.59999266  1
  C  C153  1  0.77262529  0.15031080  0.83491590  1
  O  O154  1  0.86895752  0.45092337  0.66582653  1
  O  O155  1  0.79940704  0.29892221  0.95886328  1
  C  C156  1  0.75477623  0.07921439  0.78855843  1
  O  O157  1  0.79166676  0.07454830  0.51737105  1
  C  C158  1  0.94078893  0.84246909  0.09244627  1
  C  C159  1  0.88528475  0.75673077  0.13289727  1
  C  C160  1  0.85453025  0.61977694  0.17389299  1
  C  C161  1  0.97567038  0.58233185  0.41190551  1
  C  C162  1  0.82360333  0.57531606  0.17868184  1
  C  C163  1  0.78813618  0.69225767  0.09037703  1
  C  C164  1  0.91797653  0.72187351  0.06742083  1
  C  C165  1  0.75176120  0.72582998  0.07111105  1
  C  C166  1  0.85278742  0.70273230  0.13874435  1
  H  H167  1  0.96551702  0.87600880  0.08264609  1
  H  H168  1  0.96659868  0.51633245  0.42665234  1
  H  H169  1  0.88073331  0.58840868  0.19712711  1
  C  C170  1  0.82000010  0.73647815  0.08533317  1
  H  H171  1  0.76770737  0.57083134  0.14622852  1
  H  H172  1  0.81811701  0.79893210  0.04958531  1
  C  C173  1  0.79130103  0.60932189  0.13020357  1
  H  H174  1  0.85815725  0.87238079  0.22005600  1
  N  N175  1  0.91232710  0.88268496  0.16234998  1
  C  C176  1  0.88289614  0.83972707  0.17986109  1
  C  C177  1  0.95661294  0.65454816  0.45685700  1
  C  C178  1  0.97827345  0.72592523  0.42897288  1
  H  H179  1  0.97093346  0.79045753  0.45422047  1
  N  N180  1  0.94651822  0.76697901  0.03553959  1
  H  H181  1  0.92319789  0.66123474  0.01474143  1
  C  C182  1  0.90311132  0.58513247  0.60852165  1
  O  O183  1  0.75465575  0.96916369  0.54835571  1
  O  O184  1  0.81968972  0.50810653  0.77706548  1
  C  C185  1  0.92102938  0.65629977  0.54671601  1
  C  C186  1  0.90381361  0.73338364  0.56238091  1
  C  C187  1  0.86883457  0.59122948  0.66867196  1
  C  C188  1  0.87016535  0.73450000  0.63405538  1
  O  O189  1  0.81999441  0.81450899  0.69643261  1
  C  C190  1  0.85087834  0.66535216  0.68743088  1
  H  H191  1  0.82405444  0.66782893  0.74933957  1
  H  H192  1  0.91766127  0.52566447  0.61208487  1
  H  H193  1  0.78270848  0.72903564  0.56573527  1
  C  C194  1  0.85234539  0.81684144  0.63250705  1
  Cu  Cu195  1  0.78791819  0.89451987  0.61772945  1
  C  C196  1  0.85218246  0.51040920  0.71459274  1
  O  O197  1  0.86775004  0.87742763  0.58453692  1
  H  H198  1  0.91563456  0.79176860  0.52004809  1
  C  C199  1  0.75335001  0.73411361  0.57276735  1
