# generated using pymatgen
data_Zn3H7C18O13
_symmetry_space_group_name_H-M   'P 1'
_cell_length_a   12.80543597
_cell_length_b   12.83461508
_cell_length_c   31.08634677
_cell_angle_alpha   90.00000000
_cell_angle_beta   90.00000000
_cell_angle_gamma   90.00000000
_symmetry_Int_Tables_number   1
_chemical_formula_structural   Zn3H7C18O13
_chemical_formula_sum   'Zn24 H56 C144 O104'
_cell_volume   5109.12942434
_cell_formula_units_Z   8
loop_
 _symmetry_equiv_pos_site_id
 _symmetry_equiv_pos_as_xyz
  1  'x, y, z'
loop_
 _atom_site_type_symbol
 _atom_site_label
 _atom_site_symmetry_multiplicity
 _atom_site_fract_x
 _atom_site_fract_y
 _atom_site_fract_z
 _atom_site_occupancy
  C  C0  1  0.16964128  0.02814000  0.13317011  1
  O  O1  1  0.06043270  0.27354949  0.05630618  1
  C  C2  1  0.08952367  0.46699489  0.05596444  1
  O  O3  1  0.42951737  0.12793864  0.22131963  1
  C  C4  1  0.46364845  0.41176626  0.19858776  1
  H  H5  1  0.39367465  0.36769239  0.18391436  1
  Zn  Zn6  1  0.37710138  0.14807634  0.15127983  1
  H  H7  1  0.22783739  0.39807774  0.03060411  1
  O  O8  1  0.27669060  0.17438861  0.02227505  1
  H  H9  1  0.38495786  0.09064107  0.07802649  1
  C  C10  1  0.46304859  0.14272283  0.01936268  1
  O  O11  1  0.28743273  0.28689163  0.15223126  1
  O  O12  1  0.10922201  0.33221699  0.18925990  1
  O  O13  1  0.10521611  0.08590563  0.14955924  1
  H  H14  1  0.26581253  0.23992733  0.21011908  1
  H  H15  1  0.22214874  0.25640748  0.14727401  1
  O  O16  1  0.25694156  0.06354792  0.12132707  1
  C  C17  1  0.18701746  0.46819223  0.03669567  1
  C  C18  1  0.09552520  0.35043436  0.22842055  1
  Zn  Zn19  1  0.22780078  0.42907412  0.15451833  1
  C  C20  1  0.26657907  0.26882272  0.24506170  1
  C  C21  1  0.45860513  0.09052068  0.05858784  1
  O  O22  1  0.46397670  0.00437468  0.14029294  1
  O  O23  1  0.01900474  0.40260569  0.24049912  1
  C  C24  1  0.02887585  0.36694967  0.06611590  1
  Zn  Zn25  1  0.12831254  0.20900098  0.00008829  1
  C  C26  1  0.36162317  0.18330176  0.00196540  1
  C  C27  1  0.16868520  0.34914443  0.30387258  1
  H  H28  1  0.40195137  0.22782777  0.33891543  1
  C  C29  1  0.34339095  0.23549200  0.27402176  1
  C  C30  1  0.33740948  0.26084689  0.31835743  1
  O  O31  1  0.16634556  0.40814634  0.38912848  1
  C  C32  1  0.24915967  0.31493788  0.33206640  1
  C  C33  1  0.23536568  0.35059534  0.37897434  1
  C  C34  1  0.17970051  0.32200728  0.26156395  1
  H  H35  1  0.09397044  0.38641292  0.31558698  1
  O  O36  1  0.30518001  0.31912574  0.40534669  1
  Zn  Zn37  1  0.45867173  0.38508493  0.42310202  1
  C  C38  1  0.03558458  0.27213588  0.47480978  1
  O  O39  1  0.02034753  0.19075830  0.45477483  1
  C  C40  1  0.43986467  0.17492977  0.25638596  1
  Zn  Zn41  1  0.18331151  0.37810815  0.54497539  1
  O  O42  1  0.06668579  0.40332066  0.59295742  1
  O  O43  1  0.12664425  0.36685786  0.65604045  1
  C  C44  1  0.06055508  0.35311356  0.62649070  1
  C  C45  1  0.45632086  0.38516800  0.69699729  1
  C  C46  1  0.36956321  0.21676282  0.55666651  1
  O  O47  1  0.31911627  0.28912329  0.53875400  1
  C  C48  1  0.21007852  0.09935951  0.55886199  1
  H  H49  1  0.16956309  0.15497410  0.53693005  1
  Zn  Zn50  1  0.14510767  0.47671428  0.71017562  1
  H  H51  1  0.03897825  0.22948637  0.69691701  1
  C  C52  1  0.31314955  0.12113587  0.57084750  1
  C  C53  1  0.36700244  0.05149761  0.59829060  1
  H  H54  1  0.37962979  0.46217728  0.50919098  1
  H  H55  1  0.44131559  0.07699002  0.61269341  1
  O  O56  1  0.08916900  0.27702819  0.50716227  1
  O  O57  1  0.46621608  0.21988229  0.56359520  1
  C  C58  1  0.41524006  0.40529575  0.73792245  1
  H  H59  1  0.36973711  0.47855652  0.74473954  1
  C  C60  1  0.16467587  0.00470939  0.56922529  1
  C  C61  1  0.45384868  0.46995222  0.66299608  1
  O  O62  1  0.49465030  0.44670045  0.62949371  1
  O  O63  1  0.02018216  0.04060284  0.53312209  1
  H  H64  1  0.03601331  0.45495063  0.51618460  1
  C  C65  1  0.17032468  0.05049371  0.92248332  1
  H  H66  1  0.13212646  0.33878886  0.82647015  1
  C  C67  1  0.36779599  0.33130416  0.80961125  1
  Zn  Zn68  1  0.31921326  0.47251833  0.89100572  1
  O  O69  1  0.24760359  0.08083197  0.90037351  1
  O  O70  1  0.36980428  0.24439973  0.97083270  1
  Zn  Zn71  1  0.35632959  0.20926371  0.90068280  1
  C  C72  1  0.41818182  0.32358816  0.76710229  1
  O  O73  1  0.37392719  0.25860931  0.83520163  1
  O  O74  1  0.10538253  0.33083158  0.95444141  1
  O  O75  1  0.11361172  0.10924422  0.94267253  1
  C  C76  1  0.05338090  0.34444840  0.84109660  1
  O  O77  1  0.32937105  0.42250074  0.82108373  1
  C  C78  1  0.03515798  0.34211066  0.88590385  1
  O  O79  1  0.21856907  0.33471974  0.90129082  1
  C  C80  1  0.12510500  0.33624387  0.91564286  1
  O  O81  1  0.08957502  0.36806383  0.75302584  1
  O  O82  1  0.47677776  0.49908816  0.88151064  1
  C  C83  1  0.47350921  0.22727090  0.76021741  1
  H  H84  1  0.48314621  0.16654332  0.78463216  1
  O  O85  1  0.25554431  0.55562523  0.11278234  1
  C  C86  1  0.10131069  0.70097935  0.13796825  1
  C  C87  1  0.04875252  0.88332386  0.14581862  1
  C  C88  1  0.27336027  0.65140452  0.11455223  1
  O  O89  1  0.39933883  0.52062476  0.00639951  1
  C  C90  1  0.19692978  0.73643058  0.12326108  1
  C  C91  1  0.21785169  0.56605770  0.02028033  1
  C  C92  1  0.22195607  0.84103812  0.11722335  1
  C  C93  1  0.14378557  0.91126228  0.13040773  1
  H  H94  1  0.30033638  0.86567419  0.10719869  1
  H  H95  1  0.19436363  0.73366430  0.00658118  1
  C  C96  1  0.34929468  0.56354692  0.22532456  1
  H  H97  1  0.08437205  0.61883777  0.13816511  1
  O  O98  1  0.35876709  0.68727604  0.10084734  1
  C  C99  1  0.45401042  0.50387415  0.22041576  1
  Zn  Zn100  1  0.44836673  0.62662750  0.05347955  1
  O  O101  1  0.26523569  0.51025463  0.21539434  1
  C  C102  1  0.16382445  0.65968311  0.02097461  1
  C  C103  1  0.02918060  0.77553412  0.15196223  1
  C  C104  1  0.06461790  0.65063298  0.04115960  1
  O  O105  1  0.34289102  0.64811529  0.24226916  1
  C  C106  1  0.02754512  0.55423158  0.05803469  1
  O  O107  1  0.01624370  0.83184673  0.03184642  1
  C  C108  1  0.13607467  0.86339291  0.43302233  1
  C  C109  1  0.20401999  0.61759738  0.34351092  1
  C  C110  1  0.15784386  0.77392602  0.40230483  1
  H  H111  1  0.01909115  0.80709537  0.36546228  1
  C  C112  1  0.27096502  0.63483554  0.37725450  1
  C  C113  1  0.11041510  0.67583119  0.34032272  1
  C  C114  1  0.24492348  0.71069001  0.40815422  1
  C  C115  1  0.08777533  0.75616499  0.36881938  1
  H  H116  1  0.28874164  0.70771179  0.43872671  1
  O  O117  1  0.05501741  0.59660709  0.27537452  1
  C  C118  1  0.36782041  0.55877768  0.38039734  1
  H  H119  1  0.21793199  0.55854596  0.31877979  1
  C  C120  1  0.03228300  0.65640749  0.30523252  1
  O  O121  1  0.17762233  0.86668185  0.46748811  1
  O  O122  1  0.40547692  0.54372150  0.41751207  1
  O  O123  1  0.05518176  0.91990866  0.42448165  1
  O  O124  1  0.40400044  0.51707249  0.34937856  1
  O  O125  1  0.05926454  0.76410385  0.65182615  1
  O  O126  1  0.40973873  0.55585970  0.66873325  1
  C  C127  1  0.31993194  0.95842302  0.60877715  1
  Zn  Zn128  1  0.05405050  0.74368384  0.58137016  1
  C  C129  1  0.25430856  0.61066177  0.54573269  1
  O  O130  1  0.14198908  0.63889478  0.68378188  1
  Zn  Zn131  1  0.46214008  0.71432992  0.68430376  1
  H  H132  1  0.18634580  0.85504289  0.60263531  1
  C  C133  1  0.06758429  0.69908178  0.68148044  1
  C  C134  1  0.41931822  0.53179237  0.52080114  1
  C  C135  1  0.22357404  0.93073356  0.59368887  1
  H  H136  1  0.38039465  0.76761298  0.57191230  1
  O  O137  1  0.21032989  0.68014201  0.56771867  1
  O  O138  1  0.34976029  0.80424885  0.64916925  1
  O  O139  1  0.46201731  0.93115943  0.65681149  1
  C  C140  1  0.41966083  0.70869178  0.55285650  1
  C  C141  1  0.38302686  0.89444701  0.64089849  1
  C  C142  1  0.36938041  0.61739845  0.53976991  1
  O  O143  1  0.20677245  0.53989961  0.52469183  1
  C  C144  1  0.05953849  0.97487377  0.55777216  1
  O  O145  1  0.01314014  0.89539799  0.57175833  1
  H  H146  1  0.32036887  0.66472040  0.73075528  1
  O  O147  1  0.38741183  0.68297515  0.74399916  1
  C  C148  1  0.05475349  0.73027641  0.91151222  1
  C  C149  1  0.12775127  0.94127337  0.91862569  1
  H  H150  1  0.02226992  0.65521012  0.90252599  1
  H  H151  1  0.25666809  0.89420705  0.88043165  1
  C  C152  1  0.31654525  0.55392107  0.99002451  1
  Zn  Zn153  1  0.33926914  0.60190361  0.79585254  1
  C  C154  1  0.21250984  0.68903137  0.86557549  1
  C  C155  1  0.03367208  0.91387048  0.93701801  1
  C  C156  1  0.18420360  0.86538012  0.89523668  1
  C  C157  1  0.14717193  0.76495371  0.89210668  1
  O  O158  1  0.20068476  0.59070435  0.87009087  1
  O  O159  1  0.27703972  0.72658765  0.84160856  1
  O  O160  1  0.21198384  0.56551658  0.75691640  1
  O  O161  1  0.31802410  0.56983016  0.95064485  1
  H  H162  1  0.05222457  0.62664925  0.76267021  1
  C  C163  1  0.00187675  0.80807095  0.93218849  1
  O  O164  1  0.49623454  0.59432075  0.82470429  1
  H  H165  1  0.17523800  0.51692791  0.77821917  1
  O  O166  1  0.94373961  0.37251592  0.08321999  1
  O  O167  1  0.66232277  0.21955377  0.17153996  1
  C  C168  1  0.58397761  0.27068210  0.16430736  1
  C  C169  1  0.55001487  0.04624152  0.07459411  1
  Zn  Zn170  1  0.65166724  0.12752013  0.23392818  1
  C  C171  1  0.64919268  0.41051547  0.21381072  1
  C  C172  1  0.56305759  0.36877347  0.19248294  1
  C  C173  1  0.64455122  0.05257954  0.05370723  1
  H  H174  1  0.72768101  0.37320867  0.21337936  1
  O  O175  1  0.82998217  0.04832359  0.00053354  1
  O  O176  1  0.51408244  0.23507285  0.13995156  1
  C  C177  1  0.64992078  0.10692412  0.01461398  1
  H  H178  1  0.71541294  0.01604277  0.06880674  1
  C  C179  1  0.77914247  0.08257257  0.33718413  1
  O  O180  1  0.54296940  0.14169370  0.45361441  1
  O  O181  1  0.68405566  0.44653574  0.49172935  1
  C  C182  1  0.91184810  0.37012596  0.42617742  1
  H  H183  1  0.90821187  0.30566333  0.40271717  1
  C  C184  1  0.57947905  0.17004561  0.41790772  1
  C  C185  1  0.80556941  0.46725116  0.37441482  1
  C  C186  1  0.86722927  0.46693311  0.41596506  1
  C  C187  1  0.65890008  0.10733374  0.39435779  1
  O  O188  1  0.78373440  0.18661349  0.27105614  1
  O  O189  1  0.80578540  0.39464709  0.34979494  1
  C  C190  1  0.70624409  0.14530725  0.35703979  1
  H  H191  1  0.68775020  0.22647034  0.34611976  1
  O  O192  1  0.54834539  0.24873366  0.39825293  1
  C  C193  1  0.83307830  0.12375673  0.29565954  1
  C  C194  1  0.97595341  0.37123995  0.46220129  1
  O  O195  1  0.53491281  0.36874338  0.48343945  1
  Zn  Zn196  1  0.97770855  0.03194644  0.46592681  1
  O  O197  1  0.51898274  0.16872083  0.27765451  1
  C  C198  1  0.98236697  0.45675622  0.48914161  1
  C  C199  1  0.59053132  0.44958242  0.49511468  1
  O  O200  1  0.91275421  0.08177212  0.28447421  1
  C  C201  1  0.68167243  0.00600596  0.40892159  1
  C  C202  1  0.83301978  0.16269950  0.60664026  1
  O  O203  1  0.73177629  0.18715989  0.54308376  1
  O  O204  1  0.84183807  0.02891933  0.73405942  1
  C  C205  1  0.75054623  0.13436322  0.57594043  1
  C  C206  1  0.84184654  0.10461618  0.64554037  1
  Zn  Zn207  1  0.58187509  0.22552728  0.51591309  1
  O  O208  1  0.62642782  0.11077683  0.67769458  1
  C  C209  1  0.58031624  0.12171170  0.71305504  1
  H  H210  1  0.55224346  0.28855231  0.65621569  1
  C  C211  1  0.91028974  0.23698552  0.60084461  1
  O  O212  1  0.70669927  0.04886012  0.58291985  1
  H  H213  1  0.90687817  0.28174823  0.57015741  1
  O  O214  1  0.59203919  0.06054643  0.74333703  1
  H  H215  1  0.78479930  0.03781911  0.65150205  1
  C  C216  1  0.52096960  0.22301940  0.72144127  1
  C  C217  1  0.91968556  0.08347488  0.72281882  1
  C  C218  1  0.91193242  0.13510449  0.67815268  1
  C  C219  1  0.51170836  0.29519648  0.68773875  1
  C  C220  1  0.98283117  0.21507447  0.67201545  1
  C  C221  1  0.98484932  0.26624971  0.63193215  1
  O  O222  1  0.99110289  0.10325804  0.74697037  1
  O  O223  1  0.92291849  0.39797222  0.74153808  1
  C  C224  1  0.75108318  0.10601864  0.99081531  1
  C  C225  1  0.97268501  0.36071629  0.81349751  1
  O  O226  1  0.75950831  0.16736515  0.96041730  1
  C  C227  1  0.85545618  0.36472598  0.87069573  1
  H  H228  1  0.55407557  0.19889356  0.96713659  1
  H  H229  1  0.91519783  0.35446234  0.93686889  1
  C  C230  1  0.86689093  0.36151010  0.82608657  1
  O  O231  1  0.67040496  0.33127360  0.87885928  1
  C  C232  1  0.74599664  0.38207613  0.89170654  1
  O  O233  1  0.73993850  0.15528239  0.82996770  1
  Zn  Zn234  1  0.67999411  0.15817211  0.89283727  1
  C  C235  1  0.55640852  0.15020858  0.99770259  1
  C  C236  1  0.93335866  0.35139181  0.90126411  1
  H  H237  1  0.80324720  0.37545296  0.80251964  1
  H  H238  1  0.81551484  0.13366463  0.83033031  1
  Zn  Zn239  1  0.73484695  0.03955105  0.78336821  1
  O  O240  1  0.74253765  0.44987100  0.92108336  1
  C  C241  1  0.99301240  0.37190698  0.76578187  1
  H  H242  1  0.52944661  0.07451701  0.90109076  1
  O  O243  1  0.52276073  0.15012258  0.90459344  1
  C  C244  1  0.92595358  0.74572515  0.17036851  1
  O  O245  1  0.89580428  0.73015953  0.04835946  1
  O  O246  1  0.59221620  0.66425173  0.02062463  1
  Zn  Zn247  1  0.82221496  0.88216319  0.03030858  1
  O  O248  1  0.90760925  0.64859150  0.17423877  1
  C  C249  1  0.61596451  0.74940312  0.00326411  1
  Zn  Zn250  1  0.96053759  0.55226323  0.22352456  1
  O  O251  1  0.61087638  0.92433607  0.12769458  1
  H  H252  1  0.90525130  0.89128792  0.09409539  1
  O  O253  1  0.86379915  0.81220110  0.18580605  1
  C  C254  1  0.99377024  0.74575978  0.04452234  1
  O  O255  1  0.83656327  0.92080324  0.09583528  1
  Zn  Zn256  1  0.76174917  0.92557836  0.15495299  1
  C  C257  1  0.53257308  0.55930306  0.24027750  1
  C  C258  1  0.62949653  0.50688301  0.23544444  1
  H  H259  1  0.94613113  0.54689581  0.07213310  1
  O  O260  1  0.65779596  0.82133564  0.02400572  1
  H  H261  1  0.99269775  0.94478271  0.15694877  1
  H  H262  1  0.59986546  0.99502729  0.19594027  1
  C  C263  1  0.54005753  0.98881390  0.11707250  1
  O  O264  1  0.67608788  0.99415327  0.20479525  1
  H  H265  1  0.87030951  0.93979708  0.33276454  1
  O  O266  1  0.94502211  0.70368452  0.30586241  1
  C  C267  1  0.75363644  0.94543778  0.38612264  1
  H  H268  1  0.82814887  0.62870260  0.43260265  1
  O  O269  1  0.71694943  0.79283492  0.42809614  1
  Zn  Zn270  1  0.79548529  0.66826974  0.32941881  1
  O  O271  1  0.72024533  0.64068496  0.27133218  1
  O  O272  1  0.83759903  0.78598442  0.37573682  1
  C  C273  1  0.77026577  0.83425597  0.39776795  1
  O  O274  1  0.85327124  0.95603158  0.49460910  1
  C  C275  1  0.92765334  0.55025198  0.48078583  1
  C  C276  1  0.81065641  0.98594112  0.35104790  1
  H  H277  1  0.63902164  0.97284777  0.43727288  1
  C  C278  1  0.87232445  0.55579515  0.44042856  1
  O  O279  1  0.74479298  0.54599700  0.36774836  1
  C  C280  1  0.72804387  0.55300287  0.25246181  1
  O  O281  1  0.89930357  0.73086515  0.49655437  1
  O  O282  1  0.81298556  0.50345208  0.25058089  1
  Zn  Zn283  1  0.75900569  0.82423582  0.49419034  1
  H  H284  1  0.52763254  0.63552518  0.25837393  1
  C  C285  1  0.58449246  0.62534378  0.52832386  1
  Zn  Zn286  1  0.61460671  0.97417749  0.63312917  1
  O  O287  1  0.70415808  0.84737573  0.66097497  1
  O  O288  1  0.55949175  0.88068892  0.57500656  1
  H  H289  1  0.67267717  0.62278624  0.52624830  1
  C  C290  1  0.52420648  0.54253767  0.51522896  1
  C  C291  1  0.78681985  0.74400082  0.71341081  1
  O  O292  1  0.69446384  0.78647424  0.55555484  1
  O  O293  1  0.60628369  0.77615397  0.71202164  1
  C  C294  1  0.88333487  0.74975490  0.69319934  1
  C  C295  1  0.69171848  0.79348288  0.69364184  1
  C  C296  1  0.92965741  0.64285769  0.50835975  1
  C  C297  1  0.59699227  0.79755019  0.56078237  1
  H  H298  1  0.89377269  0.80139292  0.66449143  1
  C  C299  1  0.97067396  0.69906067  0.71006137  1
  C  C300  1  0.52884783  0.70762226  0.54806929  1
  O  O301  1  0.97547555  0.63126296  0.54487772  1
  H  H302  1  0.87586779  0.96740325  0.52348011  1
  C  C303  1  0.57665146  0.76010389  0.86843067  1
  O  O304  1  0.83508771  0.84201040  0.96364334  1
  O  O305  1  0.87940610  0.68072787  0.94696929  1
  C  C306  1  0.61984492  0.84071349  0.89264629  1
  C  C307  1  0.67043981  0.92567787  0.86729202  1
  O  O308  1  0.78145999  0.65899754  0.83745088  1
  C  C309  1  0.59728910  0.75550623  0.95675815  1
  Zn  Zn310  1  0.79736738  0.59739095  0.90291748  1
  C  C311  1  0.86290872  0.62087697  0.81813570  1
  C  C312  1  0.54784467  0.67204188  0.89164635  1
  H  H313  1  0.56760391  0.76444832  0.83318875  1
  C  C314  1  0.63290140  0.84505974  0.93709343  1
  C  C315  1  0.89915299  0.77728234  0.95037422  1
  O  O316  1  0.93383828  0.59196468  0.84196050  1
  H  H317  1  0.66144944  0.91314974  0.95372812  1
  O  O318  1  0.67210044  0.92594575  0.82804907  1
  H  H319  1  0.71120573  0.68946690  0.77134136  1
  C  C320  1  0.56098797  0.66165347  0.93557314  1
  C  C321  1  0.87418490  0.65281382  0.77071029  1
  C  C322  1  0.50780185  0.58201512  0.86536104  1
  H  H323  1  0.53749564  0.58914775  0.95291254  1
  O  O324  1  0.71517719  0.99520173  0.88972748  1
  H  H325  1  0.98233165  0.96999640  0.95161760  1
  C  C326  1  0.97194675  0.65549043  0.75100238  1
  C  C327  1  0.78288059  0.69166265  0.75251581  1
