# generated using pymatgen
data_CuH24(C3N)12
_symmetry_space_group_name_H-M   'P 1'
_cell_length_a   14.48103305
_cell_length_b   17.28513075
_cell_length_c   24.28998717
_cell_angle_alpha   90.00000000
_cell_angle_beta   90.00000000
_cell_angle_gamma   90.00000000
_symmetry_Int_Tables_number   1
_chemical_formula_structural   CuH24(C3N)12
_chemical_formula_sum   'Cu8 H192 C288 N96'
_cell_volume   6079.94287766
_cell_formula_units_Z   8
loop_
 _symmetry_equiv_pos_site_id
 _symmetry_equiv_pos_as_xyz
  1  'x, y, z'
loop_
 _atom_site_type_symbol
 _atom_site_label
 _atom_site_symmetry_multiplicity
 _atom_site_fract_x
 _atom_site_fract_y
 _atom_site_fract_z
 _atom_site_occupancy
  N  N0  1  0.47828421  0.29795731  0.13014959  1
  H  H1  1  0.10500468  0.19900169  0.20097699  1
  C  C2  1  0.09631221  0.21038542  0.01819417  1
  H  H3  1  0.25061098  0.03343765  0.05816767  1
  C  C4  1  0.17335309  0.30571953  0.23024636  1
  C  C5  1  0.31895180  0.26508957  0.16149184  1
  C  C6  1  0.09062653  0.38753502  0.11152023  1
  C  C7  1  0.40035241  0.25525059  0.12450140  1
  H  H8  1  0.24351136  0.42019468  0.23838304  1
  C  C9  1  0.15899426  0.07265217  0.18942601  1
  C  C10  1  0.11613930  0.34019965  0.06383406  1
  C  C11  1  0.24470127  0.36113905  0.22056393  1
  H  H12  1  0.37596720  0.38026812  0.17746987  1
  C  C13  1  0.24729898  0.14012671  0.13410479  1
  H  H14  1  0.20668688  0.10511553  0.21950018  1
  N  N15  1  0.49339447  0.46669697  0.20615767  1
  N  N16  1  0.17650207  0.08840325  0.13674161  1
  C  C17  1  0.01243719  0.10547005  0.06041448  1
  C  C18  1  0.16503581  0.23340483  0.20138683  1
  C  C19  1  0.01637384  0.40952546  0.20604904  1
  C  C20  1  0.31238853  0.14186633  0.08576140  1
  C  C21  1  0.29471262  0.07870283  0.04801478  1
  H  H22  1  0.23852769  0.27248541  0.02372336  1
  C  C23  1  0.38143548  0.20135779  0.07802590  1
  C  C24  1  0.08405416  0.25930991  0.06425387  1
  C  C25  1  0.31937701  0.34042841  0.18524154  1
  C  C26  1  0.02545137  0.23176704  0.10930168  1
  C  C27  1  0.24338553  0.20995308  0.16847556  1
  C  C28  1  0.13345177  0.46128539  0.11629804  1
  N  N29  1  0.16350701  0.36756573  0.02146181  1
  C  C30  1  0.03804520  0.36232988  0.15974837  1
  N  N31  1  0.09871513  0.03642095  0.22241886  1
  C  C32  1  0.43442183  0.20125181  0.02809089  1
  H  H33  1  0.48223219  0.24458349  0.01544651  1
  C  C34  1  0.04390859  0.00534896  0.18734102  1
  H  H35  1  0.16709838  0.48425083  0.07766411  1
  C  C36  1  0.05771472  0.48223129  0.20589215  1
  C  C37  1  0.42814228  0.47348080  0.23517274  1
  C  C38  1  0.06723110  0.13319990  0.01577672  1
  C  C39  1  0.16354783  0.44140369  0.38112877  1
  N  N40  1  0.10531806  0.27323219  0.37022111  1
  C  C41  1  0.06374872  0.23022713  0.33436406  1
  C  C42  1  0.11647737  0.11155658  0.48427076  1
  H  H43  1  0.42139783  0.14171649  0.42653971  1
  C  C44  1  0.38261321  0.13545719  0.30254593  1
  H  H45  1  0.29334766  0.40615145  0.33982935  1
  H  H46  1  0.15957049  0.38720593  0.40439042  1
  H  H47  1  0.34235195  0.34912527  0.44920660  1
  C  C48  1  0.24950701  0.20247561  0.47615742  1
  C  C49  1  0.28589585  0.15166631  0.29485891  1
  H  H50  1  0.07888016  0.14206613  0.45203598  1
  C  C51  1  0.47086429  0.10662381  0.45262259  1
  H  H52  1  0.47818655  0.07455086  0.35487521  1
  C  C53  1  0.03235648  0.00673467  0.33955582  1
  H  H54  1  0.14732083  0.15987766  0.39670725  1
  C  C55  1  0.23870307  0.45128971  0.34618717  1
  C  C56  1  0.37010684  0.01384103  0.43197510  1
  N  N57  1  0.36300999  0.46646528  0.26985370  1
  H  H58  1  0.04407027  0.48807987  0.42417663  1
  C  C59  1  0.15627552  0.22553095  0.40143441  1
  C  C60  1  0.33717933  0.04869038  0.38021316  1
  C  C61  1  0.21961220  0.10208900  0.31815256  1
  N  N62  1  0.21389991  0.24918063  0.43852232  1
  N  N63  1  0.44634843  0.03218364  0.45986952  1
  C  C64  1  0.40493965  0.08610969  0.34642908  1
  C  C65  1  0.24249521  0.04549012  0.35956874  1
  H  H66  1  0.05503589  0.05218968  0.30809732  1
  H  H67  1  0.43427148  0.16791423  0.28058739  1
  H  H68  1  0.14537411  0.11918632  0.31074530  1
  H  H69  1  0.47656461  0.42780149  0.34383346  1
  N  N70  1  0.02607644  0.19170016  0.30133602  1
  H  H71  1  0.11562388  0.32185042  0.25761169  1
  C  C72  1  0.37151712  0.30805789  0.48203222  1
  C  C73  1  0.32027363  0.49039869  0.49491960  1
  H  H74  1  0.47094889  0.39896717  0.49581764  1
  H  H75  1  0.38104613  0.49551923  0.42775406  1
  C  C76  1  0.33212662  0.23603549  0.49916644  1
  H  H77  1  0.16986242  0.48889340  0.49387273  1
  C  C78  1  0.20646787  0.13275406  0.49902067  1
  H  H79  1  0.26496151  0.20103829  0.26950899  1
  H  H80  1  0.15030210  0.34537566  0.53975790  1
  N  N81  1  0.30713659  0.09997026  0.66548131  1
  C  C82  1  0.41970897  0.43252889  0.63715495  1
  C  C83  1  0.21456010  0.49698681  0.67118869  1
  C  C84  1  0.40508652  0.35420276  0.65290907  1
  C  C85  1  0.44558625  0.34085795  0.51010121  1
  H  H86  1  0.46677473  0.21148076  0.61933934  1
  C  C87  1  0.36897901  0.09178157  0.62400785  1
  C  C88  1  0.11579223  0.01243711  0.55859939  1
  C  C89  1  0.22372736  0.46732976  0.56594732  1
  C  C90  1  0.15938232  0.31975089  0.58090045  1
  C  C91  1  0.07284803  0.05091360  0.51295201  1
  C  C92  1  0.25119690  0.09478825  0.54674086  1
  N  N93  1  0.15198673  0.47741441  0.53299107  1
  N  N94  1  0.44996785  0.05896397  0.61869888  1
  C  C95  1  0.14663942  0.24080356  0.58935615  1
  C  C96  1  0.18407298  0.36309685  0.62951852  1
  H  H97  1  0.46050856  0.25356258  0.69671520  1
  C  C98  1  0.34316516  0.06886173  0.70765699  1
  C  C99  1  0.33148891  0.12945428  0.57163037  1
  C  C100  1  0.20388623  0.44516454  0.62451383  1
  H  H101  1  0.16059900  0.14052532  0.64350027  1
  C  C102  1  0.48266189  0.30144359  0.55793123  1
  H  H103  1  0.00003083  0.03575019  0.50234788  1
  C  C104  1  0.20443984  0.03263929  0.57483837  1
  C  C105  1  0.36392400  0.19966333  0.55107608  1
  H  H106  1  0.33999295  0.32186665  0.63956854  1
  C  C107  1  0.18351866  0.32982480  0.68480997  1
  N  N108  1  0.31375571  0.47212423  0.54627500  1
  C  C109  1  0.44083182  0.23582227  0.58048256  1
  C  C110  1  0.47294097  0.31581421  0.68568840  1
  C  C111  1  0.18822722  0.24837471  0.68836714  1
  C  C112  1  0.16294259  0.20508782  0.64126087  1
  H  H113  1  0.12352349  0.20488769  0.55353126  1
  H  H114  1  0.48371835  0.06709036  0.58305773  1
  H  H115  1  0.06383119  0.28091919  0.73082663  1
  H  H116  1  0.39581265  0.49104214  0.74173892  1
  H  H117  1  0.20115016  0.21285883  0.72589729  1
  C  C118  1  0.18078478  0.38406293  0.73138842  1
  H  H119  1  0.01273874  0.44783495  0.60974409  1
  C  C120  1  0.49647263  0.47318634  0.65818395  1
  C  C121  1  0.20352315  0.46567770  0.72716417  1
  H  H122  1  0.37217644  0.46379881  0.60740581  1
  N  N123  1  0.15147842  0.35237995  0.77768575  1
  C  C124  1  0.09918675  0.28782716  0.77146343  1
  N  N125  1  0.11080040  0.03003135  0.89093198  1
  H  H126  1  0.32677238  0.45299184  0.87748025  1
  C  C127  1  0.15865699  0.05775364  0.85250011  1
  N  N128  1  0.28565663  0.33078692  0.95776447  1
  C  C129  1  0.45933382  0.36355185  0.84740700  1
  H  H130  1  0.17895083  0.15750500  0.82743475  1
  C  C131  1  0.37841624  0.16806292  0.86569464  1
  H  H132  1  0.30050137  0.15207244  0.86698030  1
  N  N133  1  0.19427585  0.10126209  0.82243634  1
  H  H134  1  0.36502194  0.36542451  0.77338973  1
  C  C135  1  0.42877430  0.46994305  0.77880379  1
  N  N136  1  0.43629857  0.10927128  0.86589009  1
  C  C137  1  0.27286504  0.39920537  0.93574466  1
  H  H138  1  0.31884081  0.04981527  0.78130514  1
  C  C139  1  0.46406494  0.28049561  0.86467594  1
  N  N140  1  0.07068615  0.24051696  0.81018476  1
  N  N141  1  0.27527114  0.45468968  0.90721796  1
  N  N142  1  0.38768103  0.24260383  0.85596361  1
  H  H143  1  0.12688661  0.23319362  0.98066646  1
  H  H144  1  0.08041790  0.09366313  0.98108237  1
  C  C145  1  0.41340945  0.39529816  0.80033397  1
  C  C146  1  0.38779382  0.04658599  0.86971667  1
  H  H147  1  0.07557970  0.48543235  0.88543483  1
  C  C148  1  0.47774146  0.49435245  0.98169402  1
  H  H149  1  0.42455243  0.49348719  0.94694244  1
  H  H150  1  0.44898660  0.15472015  0.94877006  1
  C  C151  1  0.01892181  0.18739009  0.78900728  1
  H  H152  1  0.19987832  0.49449593  0.81431761  1
  C  C153  1  0.22533835  0.32460401  0.99853233  1
  C  C154  1  0.41038690  0.14289914  0.98927538  1
  H  H155  1  0.20985122  0.00598404  0.76347976  1
  C  C156  1  0.34407765  0.08325608  0.99809154  1
  Cu  Cu157  1  0.49620079  0.03019553  0.78383848  1
  H  H158  1  0.32695394  0.03971213  0.96680401  1
  N  N159  1  0.37058439  0.04130321  0.75098015  1
  H  H160  1  0.17566854  0.74432833  0.18720053  1
  H  H161  1  0.15095047  0.88587971  0.18394436  1
  C  C162  1  0.23387154  0.70710935  0.19246457  1
  C  C163  1  0.41615505  0.91001933  0.22623735  1
  H  H164  1  0.43772076  0.67266394  0.12563386  1
  C  C165  1  0.11973436  0.50828787  0.16383034  1
  C  C166  1  0.38497540  0.67165625  0.15825687  1
  H  H167  1  0.04826080  0.73242745  0.03652074  1
  C  C168  1  0.38976365  0.89683243  0.17048869  1
  C  C169  1  0.45568382  0.89409799  0.12415213  1
  N  N170  1  0.04828789  0.90532988  0.02269072  1
  N  N171  1  0.44051529  0.55562879  0.00486345  1
  C  C172  1  0.29320365  0.89332555  0.15472390  1
  C  C173  1  0.22326648  0.89718661  0.19573384  1
  N  N174  1  0.07437304  0.64624483  0.09502031  1
  N  N175  1  0.16504642  0.88087918  0.08852848  1
  C  C176  1  0.49499443  0.56828349  0.04632618  1
  C  C177  1  0.25663861  0.87875345  0.09736957  1
  C  C178  1  0.32554875  0.86581624  0.05361411  1
  H  H179  1  0.48596566  0.89835103  0.24150060  1
  C  C180  1  0.13479654  0.90277690  0.03878538  1
  C  C181  1  0.42388107  0.88030693  0.06868203  1
  C  C182  1  0.30603806  0.72029725  0.15456105  1
  H  H183  1  0.29936723  0.76571579  0.12018165  1
  C  C184  1  0.09001875  0.68093234  0.04553157  1
  H  H185  1  0.15363316  0.56592733  0.16472784  1
  H  H186  1  0.03812899  0.85941085  0.09845440  1
  C  C187  1  0.23367830  0.64841160  0.23343289  1
  C  C188  1  0.38727465  0.61221275  0.19597357  1
  H  H189  1  0.04923031  0.52171981  0.24174955  1
  H  H190  1  0.45126736  0.57624533  0.19672472  1
  C  C191  1  0.49253029  0.87222778  0.02705982  1
  N  N192  1  0.15005100  0.66308606  0.00870149  1
  H  H193  1  0.18266003  0.93156233  0.00967284  1
  C  C194  1  0.00790360  0.68665691  0.11331058  1
  C  C195  1  0.31257195  0.59947332  0.23481000  1
  C  C196  1  0.33664632  0.70496964  0.33715131  1
  C  C197  1  0.16059828  0.57168103  0.31287944  1
  H  H198  1  0.47916092  0.67373073  0.38076501  1
  H  H199  1  0.35431541  0.77279583  0.46906696  1
  H  H200  1  0.36429558  0.92780755  0.30852948  1
  C  C201  1  0.44945078  0.80011317  0.40236208  1
  C  C202  1  0.30465272  0.96003366  0.45917049  1
  C  C203  1  0.09417552  0.56625127  0.35839585  1
  H  H204  1  0.42341780  0.74998097  0.26583866  1
  C  C205  1  0.48073767  0.55235818  0.34930967  1
  H  H206  1  0.19685119  0.90671661  0.28354157  1
  C  C207  1  0.47267688  0.78714200  0.34380228  1
  H  H208  1  0.25253072  0.68147492  0.40954639  1
  C  C209  1  0.15583892  0.88884332  0.44866522  1
  N  N210  1  0.08684135  0.98298694  0.37821545  1
  C  C211  1  0.15937228  0.63839195  0.27578438  1
  C  C212  1  0.37454717  0.76026156  0.42604184  1
  C  C213  1  0.24861368  0.90780591  0.25145070  1
  C  C214  1  0.40709371  0.74722524  0.31008123  1
  H  H215  1  0.29340355  0.66457237  0.31534032  1
  H  H216  1  0.17885427  0.76984588  0.25731364  1
  C  C217  1  0.21698983  0.94900842  0.43167993  1
  H  H218  1  0.09015580  0.87569310  0.42725027  1
  C  C219  1  0.31474868  0.71366906  0.39498054  1
  C  C220  1  0.34261101  0.91689727  0.26525422  1
  H  H221  1  0.44181248  0.56171964  0.30875916  1
  N  N222  1  0.09292110  0.68805131  0.28199535  1
  H  H223  1  0.20063663  0.61937886  0.48174476  1
  N  N224  1  0.04596965  0.81568628  0.25326787  1
  H  H225  1  0.04925843  0.61455929  0.37026892  1
  C  C226  1  0.10516335  0.75985628  0.26539386  1
  N  N227  1  0.31999900  0.50883926  0.44854439  1
  C  C228  1  0.30975978  0.52916952  0.26959514  1
  C  C229  1  0.17396572  0.99583281  0.38768136  1
  C  C230  1  0.23601521  0.51745773  0.31202942  1
  C  C231  1  0.09607055  0.50110639  0.39025097  1
  C  C232  1  0.17452677  0.85862812  0.49988027  1
  C  C233  1  0.21333612  0.62728059  0.70777227  1
  C  C234  1  0.25592924  0.89757423  0.72457086  1
  N  N235  1  0.03169327  0.77993298  0.59165331  1
  H  H236  1  0.42467196  0.71410081  0.58789216  1
  C  C237  1  0.22871967  0.84561466  0.68162516  1
  H  H238  1  0.38675173  0.94412384  0.53412485  1
  C  C239  1  0.31862474  0.92967300  0.51352925  1
  H  H240  1  0.08117040  0.66084235  0.54868380  1
  H  H241  1  0.04289533  0.98801929  0.74057889  1
  H  H242  1  0.08420946  0.96125509  0.57588189  1
  C  C243  1  0.35098441  0.70448343  0.57792028  1
  C  C244  1  0.39638565  0.69945612  0.69221546  1
  H  H245  1  0.26266265  0.85042127  0.57565610  1
  C  C246  1  0.30007570  0.78838827  0.66031697  1
  C  C247  1  0.06416358  0.88815180  0.68756112  1
  N  N248  1  0.37270870  0.77583724  0.69130271  1
  N  N249  1  0.44554710  0.63803754  0.71044250  1
  C  C250  1  0.21908151  0.57969022  0.66172201  1
  H  H251  1  0.34323166  0.66219160  0.67449094  1
  C  C252  1  0.18386384  0.73108980  0.59470041  1
  C  C253  1  0.13302181  0.83900784  0.66360949  1
  H  H254  1  0.21027050  0.69156499  0.70276255  1
  C  C255  1  0.28124483  0.74058256  0.61032764  1
  C  C256  1  0.11510907  0.78272107  0.61910295  1
  H  H257  1  0.12938230  0.81032885  0.51492725  1
  C  C258  1  0.15541322  0.67697330  0.55310027  1
  H  H259  1  0.23978539  0.99965881  0.60919658  1
  C  C260  1  0.32318919  0.66129521  0.53177435  1
  H  H261  1  0.22298251  0.60258572  0.61950232  1
  C  C262  1  0.09478489  0.94638676  0.72321004  1
  H  H263  1  0.01644263  0.64180070  0.67935856  1
  C  C264  1  0.25256457  0.87694789  0.53375377  1
  H  H265  1  0.37802254  0.64179858  0.50305719  1
  C  C266  1  0.22626535  0.64852577  0.51883280  1
  H  H267  1  0.48934258  0.60888161  0.52187504  1
  H  H268  1  0.33066476  0.90099756  0.74138813  1
  C  C269  1  0.19148871  0.95573201  0.73791624  1
  C  C270  1  0.28621587  0.75896396  0.83759250  1
  C  C271  1  0.22015054  0.70394251  0.92130583  1
  C  C272  1  0.35784608  0.64960116  0.88341335  1
  C  C273  1  0.12528011  0.95458838  0.88547843  1
  H  H274  1  0.08516305  0.93484257  0.92279746  1
  N  N275  1  0.17129865  0.89779032  0.86234329  1
  N  N276  1  0.37827046  0.97806596  0.87510000  1
  H  H277  1  0.21323295  0.63883849  0.79892259  1
  H  H278  1  0.41603048  0.60557645  0.88713648  1
  C  C279  1  0.21725263  0.59871297  0.76306467  1
  C  C280  1  0.20667110  0.51848846  0.77323065  1
  C  C281  1  0.37748649  0.82169960  0.96051089  1
  H  H282  1  0.30708328  0.96785613  0.87222696  1
  H  H283  1  0.40566527  0.69594236  0.80550185  1
  H  H284  1  0.06529678  0.56853910  0.79254392  1
  C  C285  1  0.49189380  0.52139270  0.80552503  1
  C  C286  1  0.21770671  0.76444071  0.87887972  1
  C  C287  1  0.01326165  0.57346390  0.82790593  1
  C  C288  1  0.05821490  0.80466140  0.90369166  1
  H  H289  1  0.29164755  0.61055479  0.96204384  1
  C  C290  1  0.14867967  0.82753404  0.88058279  1
  C  C291  1  0.06155025  0.74731006  0.94770009  1
  C  C292  1  0.14524893  0.70384747  0.96292374  1
  C  C293  1  0.29155122  0.64951893  0.92595889  1
  C  C294  1  0.35225825  0.70371669  0.83937170  1
  C  C295  1  0.46858918  0.83926647  0.97507221  1
  H  H296  1  0.36569798  0.79703215  0.91971208  1
  H  H297  1  0.28231260  0.79996884  0.80182522  1
  C  C298  1  0.02207708  0.53117763  0.87913711  1
  H  H299  1  0.48042519  0.73841287  0.88506399  1
  H  H300  1  0.48147139  0.65397927  0.96416468  1
  C  C301  1  0.30684078  0.84000950  0.99883553  1
  H  H302  1  0.23624881  0.82226701  0.98922415  1
  C  C303  1  0.49547324  0.87915906  0.75871714  1
  H  H304  1  0.45690015  0.82842443  0.77126591  1
  H  H305  1  0.73313507  0.17449693  0.15693432  1
  H  H306  1  0.84397301  0.26818006  0.11941691  1
  H  H307  1  0.91870435  0.24818996  0.02433667  1
  C  C308  1  0.87259703  0.29684044  0.20467035  1
  N  N309  1  0.63822732  0.30674534  0.09958980  1
  H  H310  1  0.64960182  0.34021430  0.01348686  1
  C  C311  1  0.63269385  0.37547906  0.12031053  1
  C  C312  1  0.74614171  0.08884336  0.08993199  1
  H  H313  1  0.72217717  0.21206909  0.01528405  1
  C  C314  1  0.76333546  0.16067860  0.11536392  1
  C  C315  1  0.55435901  0.27459972  0.10341308  1
  C  C316  1  0.86510721  0.20663011  0.04191208  1
  H  H317  1  0.84878631  0.48885736  0.16322369  1
  N  N318  1  0.93765312  0.25026328  0.18863306  1
  C  C319  1  0.82496872  0.21694852  0.09521687  1
  H  H320  1  0.59381796  0.46449712  0.15470916  1
  C  C321  1  0.78357963  0.07872234  0.03503557  1
  N  N322  1  0.65030106  0.43791571  0.13656134  1
  H  H323  1  0.86687564  0.35232668  0.18027716  1
  H  H324  1  0.55328340  0.21714780  0.08304280  1
  H  H325  1  0.70715132  0.04274609  0.11065882  1
  N  N326  1  0.80057010  0.29966160  0.24018672  1
  H  H327  1  0.55105920  0.23158359  0.20540042  1
  N  N328  1  0.86319325  0.48953001  0.12154974  1
  H  H329  1  0.83738590  0.43608490  0.02084878  1
  H  H330  1  0.95694328  0.13434878  0.14398157  1
  H  H331  1  0.52054474  0.00295689  0.17584034  1
  H  H332  1  0.97319451  0.39069586  0.24070708  1
  H  H333  1  0.98686458  0.04727189  0.06035327  1
  H  H334  1  0.53016265  0.41741172  0.21471228  1
  N  N335  1  0.82537512  0.37798458  0.01470268  1
  C  C336  1  0.99738192  0.15293830  0.10621075  1
  C  C337  1  0.99714187  0.28357316  0.15458762  1
  N  N338  1  0.55471938  0.22628201  0.24796464  1
  C  C339  1  0.84583586  0.13733840  0.01184559  1
  C  C340  1  0.77278222  0.00549656  0.00503780  1
  H  H341  1  0.71249117  0.19975383  0.31014547  1
  N  N342  1  0.54367250  0.15064955  0.46763701  1
  C  C343  1  0.57452313  0.28523613  0.26990630  1
  N  N344  1  0.77046976  0.18369645  0.29018854  1
  C  C345  1  0.94779761  0.26526083  0.45478702  1
  N  N346  1  0.59753611  0.35623148  0.28145450  1
  H  H347  1  0.88012457  0.07767199  0.43158799  1
  H  H348  1  0.72070036  0.04833126  0.30381123  1
  C  C349  1  0.60378816  0.35975220  0.33551818  1
  H  H350  1  0.62788647  0.42035707  0.34145494  1
  C  C351  1  0.92889812  0.19711764  0.42662409  1
  H  H352  1  0.70914654  0.07480508  0.40352711  1
  C  C353  1  0.55657576  0.46005022  0.41543486  1
  C  C354  1  0.67435631  0.02408008  0.38366880  1
  C  C355  1  0.59953204  0.38328381  0.42585201  1
  H  H356  1  0.66965557  0.23955149  0.46496957  1
  C  C357  1  0.89474852  0.12955700  0.45418177  1
  N  N358  1  0.59769908  0.32987975  0.38630479  1
  C  C359  1  0.63987812  0.36160246  0.47967080  1
  H  H360  1  0.93237429  0.19249467  0.38055459  1
  H  H361  1  0.98502507  0.22424300  0.27512485  1
  C  C362  1  0.67776075  0.00953150  0.32561623  1
  C  C363  1  0.50238723  0.47778460  0.36732668  1
  H  H364  1  0.96568836  0.32029131  0.43318594  1
  C  C365  1  0.67843027  0.28781757  0.49152061  1
  C  C366  1  0.59544525  0.10807345  0.49902171  1
  C  C367  1  0.80105208  0.23057112  0.26021446  1
  C  C368  1  0.90309839  0.19719289  0.54287035  1
  N  N369  1  0.65997417  0.09220936  0.52696493  1
  C  C370  1  0.90674274  0.45980627  0.53027315  1
  C  C371  1  0.87889585  0.20764124  0.60058673  1
  H  H372  1  0.96616917  0.47441496  0.70862738  1
  H  H373  1  0.64810764  0.03487036  0.54406647  1
  H  H374  1  0.83807880  0.08063920  0.52941791  1
  H  H375  1  0.68306469  0.44800353  0.61003397  1
  C  C376  1  0.83064255  0.08576254  0.61886478  1
  H  H377  1  0.53659594  0.33406876  0.57701944  1
  N  N378  1  0.96000829  0.40164706  0.51322668  1
  H  H379  1  0.85397745  0.43976095  0.56259692  1
  C  C380  1  0.56216973  0.43561550  0.69247528  1
  C  C381  1  0.68048019  0.40191649  0.57652291  1
  N  N382  1  0.82322154  0.15980453  0.62825219  1
  C  C383  1  0.70365729  0.05589330  0.65104862  1
  C  C384  1  0.89582118  0.28004690  0.63254131  1
  H  H385  1  0.63279341  0.13382899  0.68029711  1
  C  C386  1  0.95023620  0.33727227  0.54085114  1
  C  C387  1  0.65080803  0.47334899  0.70887935  1
  C  C388  1  0.94730111  0.33998063  0.60345958  1
  C  C389  1  0.70860350  0.27094845  0.54602231  1
  C  C390  1  0.71536302  0.32831492  0.58929489  1
  H  H391  1  0.74672005  0.31305660  0.62907093  1
  H  H392  1  0.72830891  0.21158614  0.55468264  1
  N  N393  1  0.62944522  0.07322062  0.67409640  1
  C  C394  1  0.95095811  0.41654173  0.68980344  1
  H  H395  1  0.89009187  0.06306061  0.59294017  1
  N  N396  1  0.77207177  0.02452143  0.62650875  1
  C  C397  1  0.87400923  0.28795847  0.68967363  1
  C  C398  1  0.64156371  0.42109169  0.52337431  1
  C  C399  1  0.89716479  0.35924292  0.71633651  1
  H  H400  1  0.83955976  0.24187731  0.71372605  1
  C  C401  1  0.55214907  0.35232376  0.70622570  1
  C  C402  1  0.94031556  0.26360995  0.51327767  1
  C  C403  1  0.97739687  0.40360505  0.63449666  1
  C  C404  1  0.87708861  0.12983319  0.51065582  1
  H  H405  1  0.81463269  0.49351346  0.69886321  1
  Cu  Cu406  1  0.51561609  0.00967907  0.67585826  1
  C  C407  1  0.60887545  0.49749210  0.50979868  1
  H  H408  1  0.97546209  0.14118096  0.72317535  1
  C  C409  1  0.61534830  0.31338770  0.74695145  1
  H  H410  1  0.94870081  0.18770622  0.88754185  1
  C  C411  1  0.78551943  0.46010204  0.84441611  1
  C  C412  1  0.58626590  0.18411077  0.90310199  1
  C  C413  1  0.51263211  0.42018903  0.87729690  1
  N  N414  1  0.54032685  0.44079160  0.97831937  1
  C  C415  1  0.90103128  0.04541853  0.87128153  1
  C  C416  1  0.67301948  0.36298152  0.78135684  1
  C  C417  1  0.85785821  0.06016643  0.92408347  1
  H  H418  1  0.69929584  0.11614813  0.94211371  1
  C  C419  1  0.69037922  0.44133174  0.76055849  1
  C  C420  1  0.87256995  0.13003266  0.95342781  1
  H  H421  1  0.68022683  0.28115795  0.85071457  1
  C  C422  1  0.79571136  0.00275696  0.94616893  1
  H  H423  1  0.78250443  0.36682199  0.90275328  1
  C  C424  1  0.91221086  0.26088300  0.93910833  1
  C  C425  1  0.70024561  0.33861981  0.83492345  1
  N  N426  1  0.62322269  0.03504621  0.80802530  1
  C  C427  1  0.87256326  0.35210375  0.98053720  1
  H  H428  1  0.56479834  0.13553290  0.87514300  1
  H  H429  1  0.82529514  0.49823624  0.87259367  1
  H  H430  1  0.95666599  0.08275251  0.85393296  1
  N  N431  1  0.93102106  0.33365445  0.94074582  1
  C  C432  1  0.76007605  0.38574445  0.86350847  1
  N  N433  1  0.91387782  0.18826799  0.92482889  1
  C  C434  1  0.65591990  0.16953694  0.94196305  1
  C  C435  1  0.57811087  0.31902789  0.93526070  1
  N  N436  1  0.73301893  0.15049819  0.80059826  1
  C  C437  1  0.53420620  0.49520190  0.85420654  1
  C  C438  1  0.67477036  0.09564930  0.80244852  1
  C  C439  1  0.54202358  0.25523421  0.90106346  1
  H  H440  1  0.87420364  0.36391775  0.76045345  1
  C  C441  1  0.74966810  0.48706929  0.79407233  1
  C  C442  1  0.54071644  0.39716287  0.93439597  1
  C  C443  1  0.69245985  0.21222386  0.77528404  1
  N  N444  1  0.97461270  0.14123051  0.76570018  1
  C  C445  1  0.67722474  0.22632968  0.98328747  1
  C  C446  1  0.63742070  0.29975343  0.98000237  1
  H  H447  1  0.74842883  0.25550197  0.77556149  1
  N  N448  1  0.61164012  0.23645937  0.75819359  1
  Cu  Cu449  1  0.86674628  0.80641566  0.14026588  1
  H  H450  1  0.73402726  0.66298415  0.14560763  1
  N  N451  1  0.73316729  0.94406393  0.03248313  1
  Cu  Cu452  1  0.69712643  0.80420173  0.13538357  1
  N  N453  1  0.76215917  0.59178167  0.08464462  1
  C  C454  1  0.82003310  0.53375657  0.09464096  1
  N  N455  1  0.66855873  0.76138253  0.06588432  1
  C  C456  1  0.57366768  0.96049446  0.16573580  1
  N  N457  1  0.77854280  0.89712707  0.17205611  1
  C  C458  1  0.76855039  0.60016697  0.03088043  1
  N  N459  1  0.97478063  0.96263687  0.17910767  1
  C  C460  1  0.67115206  0.68183126  0.21325991  1
  C  C461  1  0.71369856  0.93491781  0.17647116  1
  H  H462  1  0.56809038  0.88432864  0.03694621  1
  H  H463  1  0.86658703  0.87048611  0.04657109  1
  H  H464  1  0.63514455  0.70752649  0.06442386  1
  N  N465  1  0.71486286  0.70899519  0.17391575  1
  N  N466  1  0.91237050  0.85739060  0.07624512  1
  H  H467  1  0.59212462  0.55723534  0.09568468  1
  H  H468  1  0.71251232  0.64469283  0.02148380  1
  Cu  Cu469  1  0.86942768  0.91723063  0.22428465  1
  N  N470  1  0.54546543  0.90445266  0.13410231  1
  N  N471  1  0.94581088  0.71536516  0.14319006  1
  N  N472  1  0.62843231  0.64820169  0.24819761  1
  H  H473  1  0.72536029  0.94934621  0.07346710  1
  H  H474  1  0.96445104  0.96306824  0.13713004  1
  H  H475  1  0.95426666  0.68846351  0.18197827  1
  C  C476  1  0.68941055  0.79432983  0.02122482  1
  N  N477  1  0.53386168  0.58817199  0.08553016  1
  C  C478  1  0.99673473  0.87528587  0.06116433  1
  N  N479  1  0.64984490  0.98558137  0.18748916  1
  C  C480  1  0.71823951  0.87851117  0.00593181  1
  C  C481  1  0.91362500  0.95507833  0.37507479  1
  H  H482  1  0.57322519  0.68212211  0.31042980  1
  H  H483  1  0.82632365  0.79072916  0.26884886  1
  H  H484  1  0.97126284  0.73656151  0.28995027  1
  C  C485  1  0.50325615  0.61239577  0.38767738  1
  C  C486  1  0.55313725  0.59458202  0.43516945  1
  N  N487  1  0.51883020  0.84368959  0.48293256  1
  N  N488  1  0.87416514  0.91938794  0.40803844  1
  N  N489  1  0.58789464  0.79039507  0.27346429  1
  C  C490  1  0.57338370  0.52041406  0.45526088  1
  H  H491  1  0.65049941  0.91634685  0.26431661  1
  H  H492  1  0.55867627  0.64404654  0.46324154  1
  H  H493  1  0.94856480  0.66939385  0.47638623  1
  C  C494  1  0.55242455  0.82254285  0.31791683  1
  C  C495  1  0.57595581  0.91073406  0.40177253  1
  C  C496  1  0.58949537  0.89325930  0.34409276  1
  C  C497  1  0.64374360  0.93768067  0.30674927  1
  C  C498  1  0.59961994  0.71564904  0.27536922  1
  H  H499  1  0.80425340  0.91545792  0.40121985  1
  N  N500  1  0.97340494  0.61631419  0.46566510  1
  C  C501  1  0.96480634  0.79040914  0.26521604  1
  N  N502  1  0.88185976  0.82083039  0.25391997  1
  C  C503  1  0.51152364  0.85580111  0.42884772  1
  C  C504  1  0.94059806  0.56699252  0.49312308  1
  H  H505  1  0.50826876  0.96111753  0.49207979  1
  C  C506  1  0.63009830  0.97432815  0.42099417  1
  N  N507  1  0.94084025  0.99363949  0.33314100  1
  H  H508  1  0.63072857  0.98825050  0.46611873  1
  N  N509  1  0.81176685  0.61959614  0.68076052  1
  H  H510  1  0.58368660  0.79441727  0.54833443  1
  C  C511  1  0.84502429  0.76669420  0.56588766  1
  C  C512  1  0.63147650  0.68198280  0.60367708  1
  Cu  Cu513  1  0.64457873  0.89238366  0.68804966  1
  H  H514  1  0.73832569  0.77058490  0.52477017  1
  H  H515  1  0.81310298  0.91631296  0.66716479  1
  N  N516  1  0.86269240  0.75808785  0.61832887  1
  N  N517  1  0.88821807  0.53440709  0.52890048  1
  N  N518  1  0.81089107  0.77462158  0.52291148  1
  N  N519  1  0.61149192  0.55225534  0.54900251  1
  C  C520  1  0.77054554  0.54726691  0.68843024  1
  N  N521  1  0.77809392  0.88060143  0.69530248  1
  N  N522  1  0.62132852  0.82813281  0.62805020  1
  C  C523  1  0.89933672  0.60076135  0.68261777  1
  N  N524  1  0.66261018  0.73480935  0.63702822  1
  N  N525  1  0.55657035  0.67872897  0.57047908  1
  H  H526  1  0.66909889  0.62612945  0.60688164  1
  Cu  Cu527  1  0.77074785  0.73238270  0.67816308  1
  C  C528  1  0.58283653  0.84174102  0.58082349  1
  N  N529  1  0.68062562  0.53888062  0.68609569  1
  H  H530  1  0.99009160  0.88169001  0.67544609  1
  N  N531  1  0.98003427  0.59096559  0.68359692  1
  N  N532  1  0.55580144  0.91003632  0.56491189  1
  H  H533  1  0.96607741  0.76363463  0.66666429  1
  C  C534  1  0.95610235  0.77133377  0.62162089  1
  C  C535  1  0.55184495  0.61069947  0.54704915  1
  C  C536  1  0.83941710  0.84355271  0.72314887  1
  H  H537  1  0.51027057  0.53447552  0.65080455  1
  N  N538  1  0.53333164  0.93328867  0.74371068  1
  C  C539  1  0.52592486  0.90307260  0.51375388  1
  C  C540  1  0.51126244  0.67796757  0.73179834  1
  N  N541  1  0.91035885  0.81599307  0.74541153  1
  H  H542  1  0.76136567  0.54305472  0.77910881  1
  C  C543  1  0.79985988  0.60415984  0.94536676  1
  C  C544  1  0.78831794  0.69809451  0.84146863  1
  N  N545  1  0.81844357  0.57009193  0.99282541  1
  C  C546  1  0.62922917  0.73124541  0.87074525  1
  H  H547  1  0.62294109  0.57159942  0.98579339  1
  H  H548  1  0.61867757  0.64102695  0.76145517  1
  C  C549  1  0.71134445  0.63746905  0.92771215  1
  C  C550  1  0.54729877  0.65943739  0.94171917  1
  N  N551  1  0.77531400  0.74076355  0.79565083  1
  H  H552  1  0.76192086  0.89490745  0.82889974  1
  N  N553  1  0.70696360  0.82281394  0.97327382  1
  H  H554  1  0.89249859  0.98968628  0.79347498  1
  C  C555  1  0.89320680  0.81212291  0.91180409  1
  C  C556  1  0.87889289  0.60115913  0.90693387  1
  C  C557  1  0.86030037  0.76935212  0.77803899  1
  C  C558  1  0.71404687  0.68901000  0.87893279  1
  C  C559  1  0.94046789  0.62389861  0.82355736  1
  H  H560  1  0.69614468  0.91454894  0.92210705  1
  C  C561  1  0.54716776  0.71637375  0.89943545  1
  C  C562  1  0.86890547  0.64864186  0.85623706  1
  H  H563  1  0.96670358  0.87305171  0.84626319  1
  H  H564  1  0.82925728  0.84376171  0.90394522  1
  H  H565  1  0.58598962  0.53229576  0.87655590  1
  H  H566  1  0.53387629  0.82981179  0.95147145  1
  H  H567  1  0.92476043  0.74439237  0.79800742  1
  C  C568  1  0.95192217  0.54769139  0.91700527  1
  C  C569  1  0.97704629  0.71185168  0.96337253  1
  C  C570  1  0.89429933  0.75260822  0.95480181  1
  C  C571  1  0.79485961  0.93906935  0.85465172  1
  C  C572  1  0.62713793  0.61685404  0.95399690  1
  H  H573  1  0.94276801  0.51365692  0.95544876  1
  H  H574  1  0.62096012  0.77664644  0.83999288  1
  C  C575  1  0.75715548  0.94799214  0.90678854  1
  H  H576  1  0.83013965  0.73232477  0.97099920  1
  C  C577  1  0.86865429  0.98798681  0.83614075  1
  C  C578  1  0.97250651  0.83540946  0.88277425  1
  H  H579  1  0.97290747  0.66059404  0.98917495  1
  Cu  Cu580  1  0.66846142  0.78289933  0.75549351  1
  N  N581  1  0.58654176  0.69729348  0.75557583  1
  H  H582  1  0.66926490  0.99746747  0.82938780  1
  H  H583  1  0.50621637  0.57937825  0.78931988  1
