# generated using pymatgen
data_ZnH5C10N3O4
_symmetry_space_group_name_H-M   'P 1'
_cell_length_a   14.24646101
_cell_length_b   22.49251138
_cell_length_c   14.62936921
_cell_angle_alpha   90.00000000
_cell_angle_beta   90.00000000
_cell_angle_gamma   90.00000000
_symmetry_Int_Tables_number   1
_chemical_formula_structural   ZnH5C10N3O4
_chemical_formula_sum   'Zn16 H80 C160 N48 O64'
_cell_volume   4687.81585264
_cell_formula_units_Z   16
loop_
 _symmetry_equiv_pos_site_id
 _symmetry_equiv_pos_as_xyz
  1  'x, y, z'
loop_
 _atom_site_type_symbol
 _atom_site_label
 _atom_site_symmetry_multiplicity
 _atom_site_fract_x
 _atom_site_fract_y
 _atom_site_fract_z
 _atom_site_occupancy
  H  H0  1  0.03552053  0.09414035  0.34257753  1
  C  C1  1  0.03489151  0.08187061  0.41718544  1
  N  N2  1  0.39639487  0.08768041  0.17223686  1
  C  C3  1  0.33761420  0.23567270  0.27794769  1
  O  O4  1  0.25050975  0.02734052  0.23797544  1
  C  C5  1  0.33569732  0.11791997  0.22418670  1
  C  C6  1  0.36871838  0.17939043  0.23172947  1
  O  O7  1  0.18605508  0.10193864  0.30808234  1
  C  C8  1  0.24854180  0.08068475  0.26400675  1
  H  H9  1  0.16084461  0.13518015  0.47136271  1
  O  O10  1  0.05467193  0.02233251  0.07203213  1
  H  H11  1  0.02862045  0.08211183  0.02785563  1
  O  O12  1  0.27356166  0.23556881  0.32789133  1
  N  N13  1  0.44724745  0.18192013  0.18654324  1
  C  C14  1  0.01050291  0.02234718  0.14606721  1
  C  C15  1  0.46262493  0.12584898  0.14491589  1
  C  C16  1  0.10482739  0.10192474  0.48002448  1
  O  O17  1  0.03090533  0.02450604  0.80464827  1
  C  C18  1  0.09543309  0.08044918  0.56938735  1
  C  C19  1  0.43257906  0.13819724  0.56071194  1
  N  N20  1  0.19688802  0.06149890  0.70735424  1
  N  N21  1  0.17893754  0.16242349  0.66766190  1
  Zn  Zn22  1  0.07254100  0.22627408  0.64017838  1
  C  C23  1  0.24450510  0.09302034  0.76747801  1
  C  C24  1  0.16288253  0.10094715  0.64578490  1
  H  H25  1  0.38556834  0.05661240  0.61160798  1
  O  O26  1  0.31858646  0.07755871  0.92527392  1
  O  O27  1  0.35533636  0.11308767  0.55148913  1
  O  O28  1  0.30388933  0.19284553  0.89976092  1
  C  C29  1  0.24911387  0.20235561  0.80938114  1
  C  C30  1  0.22849663  0.15489158  0.74951794  1
  H  H31  1  0.30268104  0.14800050  0.89758927  1
  C  C32  1  0.29505524  0.05477287  0.85194397  1
  O  O33  1  0.45262183  0.18324432  0.51692593  1
  O  O34  1  0.29577643  0.00044604  0.83966643  1
  H  H35  1  0.43924280  0.14762684  0.97036679  1
  H  H36  1  0.09774125  0.00836476  0.80058125  1
  C  C37  1  0.01467999  0.04529459  0.59006308  1
  O  O38  1  0.48514106  0.23606902  0.89688908  1
  O  O39  1  0.38215213  0.01018461  0.62555220  1
  O  O40  1  0.03339343  0.12159833  0.98498942  1
  H  H41  1  0.44007643  0.30784580  0.47767569  1
  C  C42  1  0.46105611  0.37508413  0.15860159  1
  C  C43  1  0.32194723  0.39085665  0.10637432  1
  C  C44  1  0.47764344  0.35107155  0.46979084  1
  N  N45  1  0.43659698  0.43108334  0.19083795  1
  O  O46  1  0.07989949  0.49233659  0.37609360  1
  O  O47  1  0.39303897  0.28797214  0.27295466  1
  O  O48  1  0.04620891  0.40898889  0.47063263  1
  C  C49  1  0.35190762  0.43963589  0.16087001  1
  H  H50  1  0.44695466  0.36612328  0.32225089  1
  N  N51  1  0.39133670  0.34894062  0.10240391  1
  H  H52  1  0.43489834  0.27444619  0.22441929  1
  C  C53  1  0.23586509  0.37211685  0.05569838  1
  C  C54  1  0.48050055  0.38516626  0.38657858  1
  H  H55  1  0.04702557  0.32042791  0.00795388  1
  C  C56  1  0.05373603  0.42560344  0.39507837  1
  C  C57  1  0.01925980  0.39606282  0.31200607  1
  H  H58  1  0.09759657  0.48345657  0.04938151  1
  O  O59  1  0.17132387  0.40728943  0.04305836  1
  N  N60  1  0.02363907  0.42741791  0.22952642  1
  O  O61  1  0.24005448  0.32350169  0.01111311  1
  Zn  Zn62  1  0.36873623  0.28193287  0.97105339  1
  N  N63  1  0.47735215  0.39887988  0.71276928  1
  O  O64  1  0.27038644  0.47125359  0.67117224  1
  C  C65  1  0.15928369  0.35108726  0.63734354  1
  O  O66  1  0.43216270  0.45114749  0.86939092  1
  C  C67  1  0.13063157  0.40627049  0.68007696  1
  C  C68  1  0.25013916  0.32810937  0.62063417  1
  O  O69  1  0.32440839  0.30788560  0.60541060  1
  C  C70  1  0.19160419  0.46412050  0.70395216  1
  N  N71  1  0.07596727  0.31523101  0.62890122  1
  C  C72  1  0.45232490  0.39014138  0.87143922  1
  H  H73  1  0.02721041  0.36832539  0.84536468  1
  C  C74  1  0.47933093  0.36260130  0.79010834  1
  O  O75  1  0.45303746  0.36531383  0.94656804  1
  N  N76  1  0.04004565  0.40649479  0.69600580  1
  H  H77  1  0.41768676  0.45695710  0.93821964  1
  C  C78  1  0.00588330  0.35395517  0.66650039  1
  O  O79  1  0.22780130  0.25172385  0.79353558  1
  Zn  Zn80  1  0.45654347  0.49643546  0.71131295  1
  C  C81  1  0.46196052  0.61286447  0.41774598  1
  Zn  Zn82  1  0.36435134  0.74190836  0.34042912  1
  O  O83  1  0.31331879  0.53630893  0.24849639  1
  N  N84  1  0.23491326  0.70333590  0.34319217  1
  C  C85  1  0.13663224  0.62192861  0.32400270  1
  H  H86  1  0.28827802  0.62079796  0.29808090  1
  C  C87  1  0.05547931  0.52535381  0.03381058  1
  C  C88  1  0.39994565  0.56626359  0.43413063  1
  H  H89  1  0.13055964  0.57321369  0.31983656  1
  C  C90  1  0.45383097  0.67080603  0.19268320  1
  H  H91  1  0.36750799  0.54310823  0.37454941  1
  C  C92  1  0.22630318  0.64606982  0.32141164  1
  N  N93  1  0.45775453  0.68141257  0.27954863  1
  O  O94  1  0.23423290  0.51722146  0.12792343  1
  C  C95  1  0.06556256  0.71764390  0.34997772  1
  C  C96  1  0.29590184  0.50486879  0.18288271  1
  C  C97  1  0.49000308  0.63082418  0.31728178  1
  C  C98  1  0.15884152  0.73600310  0.35845137  1
  C  C99  1  0.39156957  0.72103160  0.12815393  1
  C  C100  1  0.05196202  0.65492278  0.33749918  1
  O  O101  1  0.32341435  0.70540577  0.08030316  1
  N  N102  1  0.00614011  0.55209173  0.09981990  1
  Zn  Zn103  1  0.01246406  0.52071117  0.22331221  1
  H  H104  1  0.03920134  0.50702373  0.42619181  1
  H  H105  1  0.32860223  0.59910661  0.67939727  1
  C  C106  1  0.35727160  0.66496853  0.88427535  1
  H  H107  1  0.24582244  0.72191219  0.94666173  1
  O  O108  1  0.15685879  0.50054517  0.75629727  1
  H  H109  1  0.08422438  0.52080837  0.88711338  1
  C  C110  1  0.48910327  0.61109188  0.80731083  1
  C  C111  1  0.38888892  0.63034137  0.80794695  1
  C  C112  1  0.31291627  0.62633093  0.74217094  1
  H  H113  1  0.40524413  0.67206130  0.94435950  1
  N  N114  1  0.20345116  0.68514348  0.82894829  1
  C  C115  1  0.04824090  0.54546368  0.94265273  1
  Zn  Zn116  1  0.07398163  0.72693873  0.84201989  1
  N  N117  1  0.45520482  0.55208439  0.59107497  1
  C  C118  1  0.26972045  0.69192997  0.89133738  1
  C  C119  1  0.22364404  0.65017648  0.75730950  1
  H  H120  1  0.16016721  0.64607830  0.70743676  1
  C  C121  1  0.00734601  0.71279185  0.63107668  1
  N  N122  1  0.00773193  0.66042288  0.78062241  1
  C  C123  1  0.39982445  0.53973660  0.52232567  1
  H  H124  1  0.36571150  0.50029309  0.54819151  1
  H  H125  1  0.17584425  0.78320703  0.37654283  1
  N  N126  1  0.39212837  0.92750977  0.28791472  1
  H  H127  1  0.08806540  0.94624780  0.36244515  1
  N  N128  1  0.38251874  0.82714929  0.33223665  1
  O  O129  1  0.49273193  0.75805365  0.44897272  1
  C  C130  1  0.13683242  0.90078860  0.12146985  1
  C  C131  1  0.21387528  0.90776554  0.18075792  1
  H  H132  1  0.24850022  0.76431444  0.22268443  1
  H  H133  1  0.09593736  0.93536770  0.08458905  1
  O  O134  1  0.00756110  0.98305443  0.20184236  1
  N  N135  1  0.09760284  0.84972035  0.10632294  1
  C  C136  1  0.07304902  0.92892025  0.43182197  1
  C  C137  1  0.21489299  0.80499428  0.19985457  1
  C  C138  1  0.44788429  0.85538108  0.38331471  1
  C  C139  1  0.25472645  0.85967202  0.22787708  1
  C  C140  1  0.34470807  0.87070205  0.28114198  1
  H  H141  1  0.22566442  0.95482944  0.20889109  1
  N  N142  1  0.45741238  0.95449128  0.07367378  1
  C  C143  1  0.45422865  0.91651934  0.35608512  1
  C  C144  1  0.13560219  0.80223792  0.14594038  1
  O  O145  1  0.41823563  0.77125917  0.13643914  1
  C  C146  1  0.00394591  0.88433347  0.44869093  1
  Zn  Zn147  1  0.38881327  0.99531436  0.17620687  1
  H  H148  1  0.09773898  0.75924740  0.12288400  1
  H  H149  1  0.00601000  0.75077462  0.35378673  1
  H  H150  1  0.17159452  0.99085494  0.49983496  1
  N  N151  1  0.08915143  0.82065085  0.85178887  1
  C  C152  1  0.01692289  0.85634254  0.86153642  1
  H  H153  1  0.06342657  0.87593319  0.67942112  1
  C  C154  1  0.25930091  0.82898437  0.83504470  1
  C  C155  1  0.16091658  0.85560677  0.83058184  1
  H  H156  1  0.27558961  0.84674555  0.98390733  1
  H  H157  1  0.44840681  0.80588529  0.98580789  1
  C  C158  1  0.31111750  0.83166935  0.91773524  1
  Zn  Zn159  1  0.18392395  0.97017228  0.69713205  1
  N  N160  1  0.13514583  0.91670774  0.81158313  1
  N  N161  1  0.44682889  0.78648427  0.85105985  1
  C  C162  1  0.40366462  0.80791950  0.92467430  1
  H  H163  1  0.45151577  0.94781619  0.84102396  1
  H  H164  1  0.27275883  0.79865251  0.69030027  1
  C  C165  1  0.06786778  0.88446274  0.60528472  1
  N  N166  1  0.12433506  0.93193139  0.58996117  1
  C  C167  1  0.30648214  0.80600105  0.75612720  1
  O  O168  1  0.49312637  0.95038867  0.68752795  1
  C  C169  1  0.04041964  0.91539531  0.83460142  1
  C  C170  1  0.40306560  0.79187798  0.77108245  1
  C  C171  1  0.12810879  0.95156210  0.50562853  1
  H  H172  1  0.45609829  0.77342402  0.71933499  1
  C  C173  1  0.43500031  0.96399935  0.98636662  1
  C  C174  1  0.47111080  0.99883888  0.66061065  1
  C  C175  1  0.48195243  0.94060856  0.90841403  1
  H  H176  1  0.37669226  0.99912575  0.97959722  1
  O  O177  1  0.05572826  0.75189027  0.66408877  1
  C  C178  1  0.01851072  0.85486406  0.53597710  1
  C  C179  1  0.77776434  0.15405918  0.31239227  1
  C  C180  1  0.84553130  0.13344380  0.23791981  1
  C  C181  1  0.97399823  0.15803693  0.03018171  1
  C  C182  1  0.81629522  0.17853112  0.39341086  1
  C  C183  1  0.67749435  0.15441892  0.30993433  1
  N  N184  1  0.87190761  0.17012472  0.15946121  1
  C  C185  1  0.93513606  0.13508777  0.11453963  1
  C  C186  1  0.62797927  0.18543794  0.38030643  1
  Zn  Zn187  1  0.88425502  0.00710871  0.33810075  1
  N  N188  1  0.66370475  0.20081025  0.45706884  1
  C  C189  1  0.61007521  0.06805943  0.07551003  1
  N  N190  1  0.88990819  0.08201298  0.24078524  1
  H  H191  1  0.55229230  0.19146601  0.38988685  1
  C  C192  1  0.52894193  0.10474102  0.06961223  1
  H  H193  1  0.63746514  0.13364654  0.25429320  1
  H  H194  1  0.63295873  0.05258604  0.14288595  1
  H  H195  1  0.89334434  0.17669142  0.40237822  1
  C  C196  1  0.75609390  0.19514556  0.46613902  1
  N  N197  1  0.97203209  0.04112832  0.43057178  1
  C  C198  1  0.94429956  0.08266061  0.16622113  1
  O  O199  1  0.69307002  0.06523837  0.46493908  1
  O  O200  1  0.98153537  0.22817938  0.31234987  1
  H  H201  1  0.69818102  0.23178076  0.10851347  1
  O  O202  1  0.52138867  0.01340709  0.35967841  1
  H  H203  1  0.63867080  0.04362212  0.44736129  1
  O  O204  1  0.95766784  0.20858102  0.00207030  1
  H  H205  1  0.66819577  0.09650846  0.49956059  1
  C  C206  1  0.96092322  0.02387473  0.51762188  1
  O  O207  1  0.58007361  0.20452915  0.79032335  1
  C  C208  1  0.65934911  0.10949617  0.66364340  1
  Zn  Zn209  1  0.67725868  0.01433785  0.80882103  1
  C  C210  1  0.76180111  0.13199558  0.67375832  1
  H  H211  1  0.82029889  0.07173555  0.56754622  1
  C  C212  1  0.51897491  0.10673139  0.61236099  1
  C  C213  1  0.55923339  0.10251682  0.90664021  1
  C  C214  1  0.83130078  0.11238950  0.60943686  1
  C  C215  1  0.91683843  0.14259746  0.60093151  1
  C  C216  1  0.88082688  0.20545637  0.71985771  1
  N  N217  1  0.62364741  0.05517818  0.69369490  1
  C  C218  1  0.53393064  0.05135924  0.65824286  1
  H  H219  1  0.54417510  0.10810252  0.83194724  1
  H  H220  1  0.73405549  0.19343924  0.77050507  1
  C  C221  1  0.79172050  0.17887418  0.72851817  1
  N  N222  1  0.59312981  0.14352659  0.62242554  1
  N  N223  1  0.62138975  0.05932805  0.91458156  1
  N  N224  1  0.94011727  0.18683791  0.65554646  1
  H  H225  1  0.96629475  0.13210707  0.54698280  1
  H  H226  1  0.77279426  0.21095133  0.53700118  1
  C  C227  1  0.50396247  0.12198954  0.97920675  1
  H  H228  1  0.99101798  0.03746890  0.65968060  1
  H  H229  1  0.91581144  0.24344017  0.75531721  1
  Zn  Zn230  1  0.60149900  0.23378600  0.59162023  1
  C  C231  1  0.53056284  0.24653118  0.82288865  1
  C  C232  1  0.65263862  0.04332034  0.99702528  1
  H  H233  1  0.70948088  0.00922522  0.99846091  1
  C  C234  1  0.66814260  0.27323258  0.13375086  1
  C  C235  1  0.98964323  0.38163727  0.17016077  1
  C  C236  1  0.57439142  0.28942603  0.13211580  1
  C  C237  1  0.57604091  0.45801031  0.44599330  1
  H  H238  1  0.74912832  0.30999075  0.48081129  1
  C  C239  1  0.55724485  0.34991316  0.16273526  1
  C  C240  1  0.72805421  0.35697899  0.19290769  1
  N  N241  1  0.74797208  0.30159983  0.16073895  1
  H  H242  1  0.63462487  0.43170486  0.21026332  1
  H  H243  1  0.52196099  0.25920434  0.10322792  1
  Zn  Zn244  1  0.87438122  0.26433230  0.16068761  1
  N  N245  1  0.96829015  0.32943684  0.20694444  1
  O  O246  1  0.78291037  0.45531331  0.37420529  1
  C  C247  1  0.81013602  0.48827524  0.31546242  1
  C  C248  1  0.90363051  0.44352708  0.04291433  1
  C  C249  1  0.63817095  0.38287352  0.19001388  1
  H  H250  1  0.79399152  0.38044965  0.22126311  1
  C  C251  1  0.96154532  0.39467963  0.06839267  1
  H  H252  1  0.86410916  0.47115198  0.09574991  1
  O  O253  1  0.80881513  0.47936738  0.23337918  1
  N  N254  1  0.52087529  0.43714617  0.37777886  1
  Zn  Zn255  1  0.51006386  0.48947878  0.26699555  1
  C  C256  1  0.97757882  0.27406718  0.35750747  1
  O  O257  1  0.97256858  0.27454762  0.44064546  1
  C  C258  1  0.99107741  0.33644715  0.29439894  1
  N  N259  1  0.53313795  0.30334894  0.67498582  1
  H  H260  1  0.84719968  0.49472056  0.92575498  1
  C  C261  1  0.89204952  0.45663651  0.95020883  1
  H  H262  1  0.92596194  0.34658072  0.52004300  1
  H  H263  1  0.83011960  0.35736502  0.79687425  1
  C  C264  1  0.82496404  0.33717071  0.72717605  1
  N  N265  1  0.72078341  0.29211596  0.61223685  1
  C  C266  1  0.58440505  0.42627223  0.52600080  1
  H  H267  1  0.68900882  0.29546833  0.74162035  1
  C  C268  1  0.74833281  0.30499603  0.69885489  1
  H  H269  1  0.62604108  0.44215688  0.58503807  1
  C  C270  1  0.87068917  0.33546656  0.57040369  1
  N  N271  1  0.94305717  0.43050122  0.88474068  1
  C  C272  1  0.90078421  0.34466420  0.65979196  1
  C  C273  1  0.77725876  0.31563901  0.55169805  1
  C  C274  1  0.50651429  0.35575194  0.64625483  1
  Zn  Zn275  1  0.94520285  0.46804206  0.75257490  1
  O  O276  1  0.65715321  0.48274917  0.69388554  1
  O  O277  1  0.75454984  0.49713282  0.80607249  1
  C  C278  1  0.52579632  0.37637102  0.54534781  1
  C  C279  1  0.99232562  0.38444925  0.90762851  1
  C  C280  1  0.51407081  0.30524545  0.76754031  1
  C  C281  1  0.99666004  0.35914404  0.99686065  1
  O  O282  1  0.89380233  0.49672290  0.62222831  1
  O  O283  1  0.58346084  0.53302519  0.11016616  1
  C  C284  1  0.95490147  0.62761336  0.34621125  1
  C  C285  1  0.85394628  0.55761675  0.34181689  1
  C  C286  1  0.96090583  0.60345871  0.08082895  1
  Zn  Zn287  1  0.82806842  0.73342152  0.49533667  1
  C  C288  1  0.74368063  0.60654566  0.47374610  1
  H  H289  1  0.92182296  0.61798599  0.14125908  1
  N  N290  1  0.93286725  0.57468763  0.30456739  1
  C  C291  1  0.82150884  0.60199118  0.40190624  1
  N  N292  1  0.88159918  0.64665757  0.40796236  1
  O  O293  1  0.77494040  0.70967394  0.29823488  1
  H  H294  1  0.80712337  0.71955507  0.35534820  1
  H  H295  1  0.60517633  0.52356378  0.04876496  1
  H  H296  1  0.57098535  0.66613444  0.48476230  1
  C  C297  1  0.52335580  0.58505782  0.08927857  1
  N  N298  1  0.52740817  0.58856360  0.25622131  1
  H  H299  1  0.60823278  0.50404741  0.43379952  1
  O  O300  1  0.69087964  0.56558931  0.48362983  1
  O  O301  1  0.50219494  0.60137576  0.01630572  1
  C  C302  1  0.50140098  0.61601950  0.17345258  1
  C  C303  1  0.51927352  0.62926296  0.49313563  1
  H  H304  1  0.91091518  0.67018957  0.98306441  1
  C  C305  1  0.95569311  0.62963678  0.99360381  1
  O  O306  1  0.80071430  0.62264525  0.89561577  1
  C  C307  1  0.72426545  0.64146428  0.89432144  1
  Zn  Zn308  1  0.56919955  0.74572420  0.85407985  1
  N  N309  1  0.55706021  0.64950884  0.85556611  1
  C  C310  1  0.93518198  0.55780267  0.59278815  1
  C  C311  1  0.63880406  0.61608277  0.85238277  1
  H  H312  1  0.69889302  0.72634966  0.78427916  1
  O  O313  1  0.70750875  0.72118666  0.71929089  1
  C  C314  1  0.62067178  0.56281753  0.80293123  1
  N  N315  1  0.93431017  0.56779259  0.75504534  1
  O  O316  1  0.74197043  0.65575070  0.51525529  1
  O  O317  1  0.70988486  0.70364975  0.93388209  1
  O  O318  1  0.98395436  0.71247371  0.55129632  1
  H  H319  1  0.77540935  0.71554158  0.92971091  1
  C  C320  1  0.98917588  0.65259958  0.69295921  1
  C  C321  1  0.95096016  0.59450356  0.67313888  1
  N  N322  1  0.53169884  0.56139799  0.77750757  1
  C  C323  1  0.97857506  0.60835210  0.81924217  1
  H  H324  1  0.84855988  0.51176345  0.66524324  1
  H  H325  1  0.55508383  0.60217472  0.63936573  1
  C  C326  1  0.99417854  0.59668359  0.91858820  1
  C  C327  1  0.68547139  0.50824874  0.76220506  1
  O  O328  1  0.95603317  0.56721777  0.51611778  1
  C  C329  1  0.51145734  0.59790696  0.57640751  1
  C  C330  1  0.81942800  0.88175450  0.28408404  1
  C  C331  1  0.76168971  0.92993315  0.22261710  1
  C  C332  1  0.91803118  0.86724186  0.39199119  1
  N  N333  1  0.88017173  0.81023482  0.37744735  1
  O  O334  1  0.58110630  0.94709955  0.45970601  1
  C  C335  1  0.76627718  0.76994093  0.26755077  1
  O  O336  1  0.76569961  0.98398274  0.24943614  1
  C  C337  1  0.52782845  0.91544704  0.08478350  1
  O  O338  1  0.72679438  0.91365029  0.15229894  1
  C  C339  1  0.82237808  0.81936850  0.30547354  1
  N  N340  1  0.87604699  0.91050531  0.33879054  1
  H  H341  1  0.54459539  0.91112046  0.15783751  1
  O  O342  1  0.71136575  0.77754859  0.20675994  1
  H  H343  1  0.55446324  0.90537887  0.47229438  1
  H  H344  1  0.65496801  0.87985022  0.02561107  1
  C  C345  1  0.58335778  0.89656408  0.01322405  1
  C  C346  1  0.52170360  0.96321497  0.38565844  1
  C  C347  1  0.50850223  0.81232968  0.45076610  1
  C  C348  1  0.92669599  0.81310435  0.89273996  1
  O  O349  1  0.78458002  0.78341475  0.62351778  1
  C  C350  1  0.98838131  0.97142814  0.84054130  1
  C  C351  1  0.63472889  0.88462642  0.84538444  1
  C  C352  1  0.80793114  0.92150451  0.67961579  1
  O  O353  1  0.88004987  0.90149035  0.65339694  1
  C  C354  1  0.56321257  0.90483450  0.91773598  1
  O  O355  1  0.79541893  0.98252508  0.66253153  1
  C  C356  1  0.74477673  0.77748510  0.69569740  1
  N  N357  1  0.65372449  0.82252544  0.82361254  1
  C  C358  1  0.71812865  0.82635407  0.75383709  1
  C  C359  1  0.74021136  0.88902810  0.74464425  1
  N  N360  1  0.67900623  0.92366082  0.79591465  1
  H  H361  1  0.72379531  0.98569365  0.67991584  1
  O  O362  1  0.94286788  0.75776493  0.89958814  1
  O  O363  1  0.85118125  0.83211133  0.90607488  1
  O  O364  1  0.90921671  0.97504875  0.87106042  1
  H  H365  1  0.96883048  0.82297771  0.55870004  1
  H  H366  1  0.89852773  0.98903984  0.51874582  1
  O  O367  1  0.55706120  0.83669624  0.50787109  1
