# generated using pymatgen
data_ZnH16C25(NO2)2
_symmetry_space_group_name_H-M   'P 1'
_cell_length_a   15.20577519
_cell_length_b   15.88659862
_cell_length_c   17.16094722
_cell_angle_alpha   90.00000000
_cell_angle_beta   90.00000000
_cell_angle_gamma   90.00000000
_symmetry_Int_Tables_number   1
_chemical_formula_structural   ZnH16C25(NO2)2
_chemical_formula_sum   'Zn8 H128 C200 N16 O32'
_cell_volume   4145.53650945
_cell_formula_units_Z   8
loop_
 _symmetry_equiv_pos_site_id
 _symmetry_equiv_pos_as_xyz
  1  'x, y, z'
loop_
 _atom_site_type_symbol
 _atom_site_label
 _atom_site_symmetry_multiplicity
 _atom_site_fract_x
 _atom_site_fract_y
 _atom_site_fract_z
 _atom_site_occupancy
  C  C0  1  0.39398570  0.06669838  0.08108891  1
  N  N1  1  0.33836138  0.05295619  0.14040439  1
  H  H2  1  0.06665389  0.04303356  0.18136555  1
  C  C3  1  0.23193519  0.34946029  0.18750319  1
  H  H4  1  0.39116644  0.13544481  0.06978956  1
  O  O5  1  0.24596400  0.30678253  0.12723808  1
  C  C6  1  0.47418114  0.27196768  0.17632615  1
  O  O7  1  0.40283018  0.48533627  0.05783817  1
  C  C8  1  0.13848673  0.34168747  0.22408903  1
  Zn  Zn9  1  0.32815560  0.37424929  0.04159904  1
  H  H10  1  0.43038212  0.22282575  0.15555944  1
  H  H11  1  0.09507333  0.26129756  0.12960404  1
  H  H12  1  0.01579744  0.39746407  0.08862158  1
  C  C13  1  0.07597893  0.29184987  0.18686895  1
  C  C14  1  0.05819499  0.09917375  0.04442730  1
  C  C15  1  0.07104882  0.00535813  0.06089280  1
  C  C16  1  0.44574664  0.00466838  0.04577066  1
  H  H17  1  0.22067978  0.00462205  0.05972208  1
  C  C18  1  0.06135552  0.06039983  0.24519185  1
  O  O19  1  0.28483845  0.39176068  0.22032517  1
  O  O20  1  0.38333613  0.25679065  0.01255033  1
  H  H21  1  0.15134624  0.16219369  0.24329515  1
  C  C22  1  0.12375678  0.38464340  0.29319737  1
  C  C23  1  0.10697399  0.12522933  0.28010186  1
  C  C24  1  0.35254276  0.31471904  0.37006815  1
  H  H25  1  0.22573545  0.33296368  0.43397508  1
  C  C26  1  0.00061662  0.00860195  0.28838782  1
  H  H27  1  0.25792879  0.08480687  0.33137269  1
  C  C28  1  0.02679272  0.27408885  0.46664975  1
  C  C29  1  0.35502368  0.17683356  0.29341946  1
  C  C30  1  0.09376356  0.14280358  0.36142006  1
  C  C31  1  0.04889245  0.37386156  0.33730417  1
  C  C32  1  0.39089496  0.25894386  0.30924188  1
  C  C33  1  0.30967933  0.48580782  0.47750047  1
  C  C34  1  0.27793083  0.15017574  0.33128769  1
  H  H35  1  0.18018331  0.41790241  0.31762121  1
  C  C36  1  0.23191507  0.21383538  0.37489452  1
  N  N37  1  0.14643071  0.19460863  0.40327006  1
  H  H38  1  0.00389568  0.11115753  0.46046968  1
  H  H39  1  0.37899894  0.37757999  0.38764454  1
  C  C40  1  0.26901190  0.29482772  0.39628031  1
  C  C41  1  0.11426881  0.24018395  0.46930609  1
  H  H42  1  0.38485036  0.20613929  0.47290080  1
  H  H43  1  0.04403764  0.39293661  0.39793424  1
  C  C44  1  0.02466242  0.09687661  0.40223578  1
  C  C45  1  0.46005417  0.29155738  0.25599371  1
  H  H46  1  0.39142291  0.13580790  0.25114560  1
  H  H47  1  0.20614172  0.22641358  0.70695012  1
  N  N48  1  0.35293668  0.24443341  0.63501789  1
  C  C49  1  0.44314981  0.21968534  0.50980649  1
  H  H50  1  0.23927342  0.23461996  0.52693613  1
  C  C51  1  0.34363901  0.29068673  0.70495985  1
  C  C52  1  0.30202060  0.17223089  0.62569149  1
  C  C53  1  0.06006881  0.44363753  0.62042748  1
  C  C54  1  0.17544426  0.26323880  0.52731483  1
  C  C55  1  0.21958563  0.17201920  0.66728292  1
  H  H56  1  0.19890489  0.34159258  0.62559251  1
  C  C57  1  0.15234039  0.32465681  0.57998146  1
  O  O58  1  0.34160274  0.44130350  0.52583338  1
  H  H59  1  0.39408439  0.09852094  0.54728808  1
  C  C60  1  0.26306293  0.05059932  0.55805142  1
  C  C61  1  0.42851425  0.25034805  0.58709069  1
  C  C62  1  0.07361979  0.36823029  0.56907683  1
  H  H63  1  0.31298071  0.40042400  0.63614545  1
  H  H64  1  0.09582752  0.10908674  0.67642474  1
  C  C65  1  0.15982319  0.11023909  0.65121890  1
  C  C66  1  0.31610479  0.37650615  0.69425149  1
  C  C67  1  0.32768810  0.10348647  0.57457820  1
  C  C68  1  0.18111242  0.04623591  0.59714936  1
  H  H69  1  0.46617795  0.05719432  0.74343411  1
  O  O70  1  0.11372528  0.47088268  0.66648902  1
  H  H71  1  0.46115301  0.48405528  0.52868131  1
  H  H72  1  0.48280726  0.32971077  0.68405161  1
  C  C73  1  0.49633406  0.29033349  0.63273811  1
  H  H74  1  0.24998295  0.48171467  0.74863911  1
  C  C75  1  0.00960111  0.34290313  0.51432081  1
  H  H76  1  0.16798584  0.46700216  0.50218869  1
  C  C77  1  0.43392966  0.23564612  0.95849421  1
  H  H78  1  0.13736829  0.27603055  0.94684344  1
  C  C79  1  0.40922795  0.15858303  0.91037958  1
  H  H80  1  0.43884511  0.36182964  0.80892855  1
  C  C81  1  0.22705604  0.42828457  0.89491061  1
  C  C82  1  0.32865788  0.24793619  0.77765448  1
  O  O83  1  0.22074794  0.39260697  0.96351211  1
  C  C84  1  0.26869687  0.37838347  0.82955288  1
  H  H85  1  0.33276424  0.17917136  0.78344723  1
  C  C86  1  0.31412448  0.03574832  0.89154908  1
  H  H87  1  0.27693654  0.26037456  0.88999003  1
  C  C88  1  0.43716751  0.07018874  0.80080686  1
  C  C89  1  0.29229300  0.29183229  0.83736132  1
  C  C90  1  0.33601559  0.10826717  0.93433055  1
  H  H91  1  0.29881225  0.12455920  0.98761243  1
  C  C92  1  0.46173502  0.14039540  0.84396789  1
  C  C93  1  0.09375576  0.10902499  0.82585251  1
  C  C94  1  0.36571869  0.01748043  0.82261525  1
  H  H95  1  0.13312144  0.16685142  0.82346001  1
  C  C96  1  0.00152881  0.11572570  0.84315129  1
  C  C97  1  0.27666058  0.41720803  0.75537525  1
  H  H98  1  0.25600146  0.00256265  0.90822348  1
  H  H99  1  0.19474895  0.02847904  0.78558227  1
  C  C100  1  0.13176625  0.02874471  0.81370307  1
  C  C101  1  0.47330951  0.42116389  0.79903126  1
  O  O102  1  0.19398827  0.49400553  0.87739575  1
  H  H103  1  0.17750976  0.11498841  0.97764571  1
  C  C104  1  0.09648455  0.22964318  0.97874942  1
  C  C105  1  0.43626217  0.49960526  0.81492877  1
  N  N106  1  0.02272433  0.26768377  0.99646453  1
  C  C107  1  0.11707049  0.14444502  0.99477227  1
  H  H108  1  0.48362935  0.01621333  0.99289385  1
  O  O109  1  0.41360696  0.65495349  0.19815062  1
  N  N110  1  0.10430608  0.75896231  0.13760543  1
  C  C111  1  0.26928357  0.66947116  0.00113672  1
  H  H112  1  0.05552069  0.60140463  0.20074825  1
  C  C113  1  0.04957594  0.65826509  0.24092057  1
  C  C114  1  0.05375408  0.73916359  0.20341842  1
  C  C115  1  0.26469390  0.58067566  0.12022790  1
  C  C116  1  0.16666603  0.70255500  0.10558418  1
  H  H117  1  0.17079039  0.61456236  0.20527232  1
  H  H118  1  0.26448565  0.75107058  0.19193718  1
  C  C119  1  0.20269892  0.72106328  0.03099143  1
  C  C120  1  0.30021255  0.60234314  0.04664987  1
  C  C121  1  0.19911285  0.63377125  0.15017726  1
  H  H122  1  0.40265913  0.85356422  0.17593350  1
  H  H123  1  0.29446914  0.52897766  0.15320437  1
  C  C124  1  0.39589871  0.91352259  0.14393293  1
  C  C125  1  0.33594365  0.97536586  0.16905143  1
  C  C126  1  0.00111563  0.51850538  0.04001165  1
  C  C127  1  0.09633850  0.83901084  0.10176717  1
  C  C128  1  0.17480866  0.88821593  0.08324181  1
  H  H129  1  0.41804302  0.75832640  0.10198106  1
  H  H130  1  0.05198578  0.87536413  0.21528115  1
  C  C131  1  0.45497693  0.92525826  0.08218303  1
  H  H132  1  0.24433901  0.85727567  0.08062872  1
  C  C133  1  0.16083759  0.96807553  0.06096401  1
  C  C134  1  0.28978404  0.78639607  0.24437030  1
  H  H135  1  0.29378101  0.97059384  0.22045151  1
  C  C136  1  0.38085366  0.55117495  0.01932308  1
  C  C137  1  0.00890930  0.87024054  0.08780597  1
  H  H138  1  0.17090360  0.85996782  0.24223281  1
  C  C139  1  0.48215047  0.77085114  0.06871908  1
  C  C140  1  0.03605094  0.81557494  0.24565753  1
  C  C141  1  0.43593956  0.70523934  0.24797358  1
  C  C142  1  0.01523838  0.72900035  0.35592233  1
  H  H143  1  0.16425727  0.73734543  0.47870724  1
  N  N144  1  0.16909957  0.54621696  0.42431109  1
  H  H145  1  0.37908853  0.91311849  0.42212216  1
  H  H146  1  0.45655593  0.99763956  0.32158031  1
  C  C147  1  0.36068344  0.53679456  0.41653724  1
  N  N148  1  0.21462355  0.95243060  0.37662946  1
  C  C149  1  0.00257418  0.72185926  0.44320582  1
  C  C150  1  0.26575050  0.89910535  0.33855500  1
  H  H151  1  0.34701088  0.63514568  0.33401822  1
  C  C152  1  0.48559960  0.54277764  0.32638057  1
  H  H153  1  0.17835285  0.63514782  0.33956641  1
  C  C154  1  0.37311493  0.76898981  0.27609954  1
  C  C155  1  0.03279315  0.65133937  0.32145144  1
  H  H156  1  0.32352951  0.73815395  0.45254540  1
  C  C157  1  0.40438938  0.81837695  0.34117382  1
  C  C158  1  0.35128556  0.87862914  0.37342543  1
  C  C159  1  0.23574921  0.85027564  0.27055245  1
  C  C160  1  0.30921554  0.59163370  0.37095747  1
  C  C161  1  0.01833054  0.81104466  0.32411889  1
  O  O162  1  0.01730198  0.65056523  0.47218488  1
  H  H163  1  0.15568803  0.96315633  0.35946826  1
  C  C164  1  0.21776737  0.59828159  0.38110710  1
  C  C165  1  0.45492265  0.53591154  0.40714323  1
  H  H166  1  0.03221734  0.59262531  0.35270894  1
  H  H167  1  0.47113375  0.80446248  0.36559177  1
  O  O168  1  0.47971140  0.71698039  0.49361128  1
  H  H169  1  0.44419712  0.50138156  0.28686535  1
  C  C170  1  0.21454583  0.50192510  0.46853338  1
  H  H171  1  0.00912109  0.86591081  0.36236296  1
  H  H172  1  0.39191702  0.80810867  0.63238447  1
  C  C173  1  0.44901679  0.67737410  0.55057920  1
  H  H174  1  0.37006455  0.62044723  0.67808728  1
  H  H175  1  0.20404277  0.63211377  0.71153440  1
  C  C176  1  0.38075703  0.94175655  0.68909866  1
  C  C177  1  0.23224004  0.65220558  0.65535225  1
  H  H178  1  0.07373000  0.69546705  0.68037978  1
  C  C179  1  0.34984432  0.67752054  0.56646298  1
  N  N180  1  0.08412591  0.69944967  0.62052633  1
  C  C181  1  0.45968849  0.93599745  0.64427176  1
  O  O182  1  0.15260067  0.88446649  0.65431063  1
  C  C183  1  0.17389364  0.68563686  0.59948068  1
  C  C184  1  0.32124801  0.64600016  0.63750718  1
  C  C185  1  0.11863136  0.96889582  0.60988090  1
  C  C186  1  0.39089729  0.87705119  0.62992060  1
  O  O187  1  0.04402656  0.95308204  0.58716900  1
  C  C188  1  0.20583876  0.71554050  0.52706099  1
  H  H189  1  0.20837257  0.90312157  0.67714065  1
  Zn  Zn190  1  0.01092167  0.81711071  0.59971092  1
  Zn  Zn191  1  0.20096700  0.95732156  0.50137265  1
  C  C192  1  0.29441013  0.71796274  0.50954918  1
  O  O193  1  0.42236264  0.57236023  0.96271811  1
  H  H194  1  0.11383745  0.88982394  0.82567090  1
  C  C195  1  0.43029336  0.66053732  0.80457693  1
  H  H196  1  0.03417231  0.82134329  0.93847894  1
  C  C197  1  0.33698447  0.65888757  0.82001574  1
  H  H198  1  0.21953187  0.72852710  0.82169953  1
  C  C199  1  0.04792318  0.62293612  0.93848925  1
  C  C200  1  0.05614258  0.70785414  0.92643961  1
  H  H201  1  0.09228211  0.57495479  0.91370672  1
  C  C202  1  0.33487894  0.81318554  0.80433630  1
  H  H203  1  0.30322830  0.59560827  0.82690596  1
  C  C204  1  0.28999691  0.73286432  0.81704566  1
  C  C205  1  0.47900075  0.57848148  0.80344511  1
  N  N206  1  0.07239093  0.77692532  0.90895458  1
  C  C207  1  0.43104936  0.81387526  0.80861438  1
  H  H208  1  0.30665350  0.68118963  0.94600219  1
  C  C209  1  0.08438199  0.95284043  0.82829518  1
  C  C210  1  0.47568054  0.73984866  0.80838664  1
  N  N211  1  0.29254917  0.88605976  0.78970829  1
  C  C212  1  0.33956708  0.95159496  0.76540659  1
  H  H213  1  0.46403831  0.87606317  0.80714501  1
  H  H214  1  0.16923923  0.77123139  0.99608195  1
  H  H215  1  0.36716754  0.50140289  0.83808470  1
  C  C216  1  0.98629565  0.46300436  0.09000000  1
  H  H217  1  0.91066374  0.26862946  0.04369117  1
  C  C218  1  0.73663959  0.02737266  0.09414454  1
  N  N219  1  0.55338248  0.39914145  0.14851225  1
  C  C220  1  0.56367718  0.40940973  0.22510493  1
  C  C221  1  0.71723366  0.11230075  0.09206910  1
  O  O222  1  0.76249499  0.35376378  0.07557575  1
  H  H223  1  0.73162400  0.14777356  0.03871419  1
  H  H224  1  0.68486151  0.14528840  0.14177228  1
  C  C225  1  0.97871259  0.14109463  0.06547150  1
  H  H226  1  0.93199473  0.10954818  0.09985874  1
  C  C227  1  0.97002492  0.22292433  0.03981323  1
  H  H228  1  0.93757344  0.27880600  0.18941601  1
  Zn  Zn229  1  0.59231440  0.49123851  0.06284656  1
  H  H230  1  0.60324599  0.46630353  0.24208551  1
  C  C231  1  0.52134197  0.32551090  0.12653490  1
  H  H232  1  0.52637839  0.31819836  0.06188971  1
  C  C233  1  0.99083472  0.30188970  0.21959056  1
  C  C234  1  0.73116034  0.36252932  0.01296323  1
  H  H235  1  0.84417445  0.12521850  0.40078030  1
  C  C236  1  0.87345692  0.19361549  0.29081907  1
  C  C237  1  0.72951054  0.13161809  0.28646014  1
  H  H238  1  0.67371919  0.13846526  0.41698597  1
  C  C239  1  0.80762937  0.35124033  0.44375977  1
  N  N240  1  0.88876892  0.33604001  0.32147341  1
  H  H241  1  0.54330490  0.17007450  0.43834287  1
  C  C242  1  0.73628868  0.28694922  0.28667710  1
  C  C243  1  0.86631647  0.38564037  0.38691520  1
  C  C244  1  0.52861809  0.20137968  0.49167129  1
  C  C245  1  0.71821973  0.16586161  0.46438900  1
  H  H246  1  0.70618287  0.34926629  0.29574870  1
  C  C247  1  0.56984763  0.42656552  0.45586291  1
  C  C248  1  0.51831919  0.35885120  0.27859792  1
  H  H249  1  0.74955684  0.48285852  0.33628219  1
  C  C250  1  0.83054896  0.27326177  0.29496727  1
  C  C251  1  0.63671788  0.44771871  0.40611324  1
  C  C252  1  0.50185937  0.49648446  0.47379989  1
  H  H253  1  0.78179846  0.28658155  0.44204262  1
  C  C254  1  0.68908626  0.21219689  0.28165878  1
  C  C255  1  0.97499358  0.33691343  0.29423795  1
  C  C256  1  0.57971970  0.06937249  0.29691107  1
  C  C257  1  0.81029077  0.15282593  0.45274867  1
  H  H258  1  0.51017507  0.37492531  0.34071850  1
  C  C259  1  0.82351707  0.12226777  0.27800405  1
  C  C260  1  0.98028579  0.03053089  0.36945867  1
  H  H261  1  0.94471844  0.18844648  0.30742847  1
  H  H262  1  0.61724547  0.21535594  0.28219322  1
  C  C263  1  0.89444592  0.47248410  0.38978442  1
  C  C264  1  0.67149826  0.05489385  0.29231627  1
  H  H265  1  0.85657185  0.06060458  0.27005020  1
  H  H266  1  0.94214166  0.49818562  0.34823014  1
  H  H267  1  0.97584008  0.25349783  0.42377210  1
  H  H268  1  0.54805265  0.13194577  0.29466158  1
  H  H269  1  0.56375536  0.36547386  0.48527906  1
  C  C270  1  0.58157926  0.27518816  0.61079167  1
  O  O271  1  0.98932900  0.48365555  0.60698187  1
  C  C272  1  0.76250078  0.23021708  0.58807729  1
  H  H273  1  0.74379612  0.37337008  0.55538765  1
  H  H274  1  0.63550716  0.30439400  0.64847139  1
  C  C275  1  0.84729150  0.20289321  0.56799187  1
  H  H276  1  0.75245114  0.25954109  0.64635847  1
  C  C277  1  0.59914602  0.22610495  0.54217041  1
  C  C278  1  0.69309501  0.20809502  0.53308560  1
  H  H279  1  0.90805347  0.21288769  0.60079264  1
  O  O280  1  0.75195839  0.49006524  0.63240902  1
  H  H281  1  0.94484243  0.37759356  0.51322997  1
  O  O282  1  0.87124145  0.29138406  0.70525729  1
  C  C283  1  0.82202464  0.48300443  0.51481717  1
  N  N284  1  0.87315055  0.17092276  0.50179135  1
  C  C285  1  0.78473157  0.40223693  0.50635813  1
  O  O286  1  0.76534363  0.09998172  0.92736494  1
  O  O287  1  0.81821659  0.36949587  0.80860045  1
  H  H288  1  0.76668201  0.31392006  0.97409060  1
  O  O289  1  0.50218697  0.27569692  0.94085479  1
  H  H290  1  0.61248497  0.37643160  0.93629019  1
  H  H291  1  0.50513036  0.18612734  0.81437447  1
  C  C292  1  0.65570930  0.41107091  0.97625497  1
  C  C293  1  0.95976079  0.04010777  0.86097585  1
  C  C294  1  0.78885632  0.03395815  0.95332031  1
  C  C295  1  0.84425095  0.33066623  0.75662304  1
  H  H296  1  0.96870591  0.17976233  0.84887691  1
  H  H297  1  0.66972305  0.46973127  0.75705462  1
  C  C298  1  0.60118555  0.48406707  0.77195294  1
  N  N299  1  0.55588843  0.41260333  0.77452503  1
  O  O300  1  0.68551335  0.58462919  0.17043144  1
  Zn  Zn301  1  0.89411763  0.55199991  0.13638381  1
  H  H302  1  0.80535937  0.87094486  0.10287821  1
  H  H303  1  0.94917732  0.82976269  0.09422364  1
  C  C304  1  0.92352953  0.64197195  0.04574127  1
  O  O305  1  0.88891142  0.91519923  0.20948448  1
  H  H306  1  0.82647339  0.72398698  0.09914113  1
  C  C307  1  0.72327997  0.58879670  0.23081926  1
  C  C308  1  0.53355913  0.70370139  0.04580420  1
  C  C309  1  0.87191375  0.71055040  0.05042150  1
  C  C310  1  0.59053877  0.87556997  0.01387915  1
  H  H311  1  0.93039240  0.98224412  0.06104988  1
  H  H312  1  0.54785657  0.59179642  0.21399023  1
  H  H313  1  0.51651435  0.64019161  0.05840202  1
  C  C314  1  0.81065762  0.90031977  0.04324861  1
  C  C315  1  0.51323028  0.85313822  0.05508086  1
  O  O316  1  0.80651620  0.58756766  0.23922858  1
  H  H317  1  0.71951149  0.98903068  0.14552705  1
  C  C318  1  0.78301412  0.98747574  0.02689653  1
  C  C319  1  0.99705944  0.95649140  0.06794851  1
  C  C320  1  0.99076280  0.60355974  0.00176234  1
  H  H321  1  0.61118645  0.93941839  0.00092555  1
  C  C322  1  0.94071232  0.95666568  0.24127245  1
  C  C323  1  0.73670646  0.79744813  0.47258559  1
  H  H324  1  0.88750410  0.58510287  0.45137144  1
  C  C325  1  0.75841725  0.73119654  0.34178251  1
  H  H326  1  0.77183794  0.96248961  0.32047062  1
  C  C327  1  0.87097269  0.52065269  0.45356221  1
  H  H328  1  0.65750965  0.84027859  0.33293738  1
  C  C329  1  0.55790192  0.59886805  0.27999329  1
  C  C330  1  0.64232759  0.90696048  0.32080463  1
  H  H331  1  0.83240229  0.83320979  0.38700016  1
  C  C332  1  0.53082362  0.99750142  0.31447681  1
  C  C333  1  0.66442021  0.58454147  0.30469893  1
  C  C334  1  0.68984963  0.66907755  0.36208655  1
  C  C335  1  0.78082320  0.78566644  0.40047618  1
  C  C336  1  0.64960146  0.67825797  0.43661066  1
  Zn  Zn337  1  0.58078903  0.57623515  0.40241302  1
  O  O338  1  0.51602606  0.69451541  0.28446681  1
  H  H339  1  0.79175878  0.72708984  0.28533985  1
  H  H340  1  0.93184185  0.99313307  0.40312696  1
  C  C341  1  0.70117190  0.97155408  0.30781769  1
  C  C342  1  0.66767535  0.73961807  0.49484319  1
  O  O343  1  0.98484363  0.78621023  0.48158135  1
  N  N344  1  0.55521598  0.91856805  0.32706233  1
  C  C345  1  0.68264825  0.50241691  0.34977813  1
  C  C346  1  0.90936815  0.74384318  0.72872337  1
  H  H347  1  0.75646681  0.84672624  0.51119008  1
  O  O348  1  0.97704165  0.69985974  0.73115636  1
  O  O349  1  0.83465723  0.59875425  0.60952838  1
  C  C350  1  0.79933758  0.52926039  0.58801716  1
  O  O351  1  0.89749464  0.79737682  0.67427892  1
  H  H352  1  0.63648107  0.73789894  0.55220804  1
  Zn  Zn353  1  0.97817065  0.61809995  0.59393439  1
  O  O354  1  0.66348998  0.90354154  0.68869858  1
  O  O355  1  0.50190644  0.64576024  0.59789164  1
  H  H356  1  0.52964176  0.92651271  0.65811738  1
  C  C357  1  0.63917858  0.94128977  0.74467025  1
  H  H358  1  0.75281220  0.81618167  0.74778606  1
  C  C359  1  0.71249051  0.67797878  0.89653459  1
  O  O360  1  0.61488179  0.97629332  0.79981460  1
  C  C361  1  0.69789888  0.74922250  0.84784712  1
  Zn  Zn362  1  0.86578568  0.94049996  0.89283468  1
  N  N363  1  0.65086383  0.65585185  0.95853359  1
  C  C364  1  0.64453766  0.57375480  0.97803171  1
  C  C365  1  0.84012409  0.72352119  0.78924601  1
  C  C366  1  0.85222242  0.65081455  0.83472476  1
  H  H367  1  0.91922953  0.74592668  0.93325215  1
  H  H368  1  0.79646794  0.57593926  0.92465208  1
  C  C369  1  0.76053348  0.76780306  0.79207857  1
  H  H370  1  0.91703663  0.62327136  0.83069744  1
  H  H371  1  0.63870647  0.78920386  0.85753905  1
  C  C372  1  0.78641451  0.62507428  0.88502420  1
  H  H373  1  0.70138485  0.82078881  0.95639169  1
  C  C374  1  0.67473131  0.50096106  0.93966221  1
  C  C375  1  0.85178466  0.85343469  0.98508048  1
  C  C376  1  0.88341115  0.77092059  0.98536368  1
  C  C377  1  0.99744107  0.96085076  0.85441665  1
  H  H378  1  0.71706626  0.50264622  0.88374081  1
  H  H379  1  0.54968768  0.73542418  0.80791225  1
  C  C380  1  0.60991723  0.72136994  0.99954656  1
  C  C381  1  0.63846813  0.80566904  0.98658938  1
  H  H382  1  0.61627677  0.61493828  0.78466526  1
  C  C383  1  0.57210315  0.56358100  0.79155139  1
