# generated using pymatgen
data_ZnH5C11O4
_symmetry_space_group_name_H-M   'P 1'
_cell_length_a   24.01661436
_cell_length_b   14.28685568
_cell_length_c   15.31021210
_cell_angle_alpha   90.00000000
_cell_angle_beta   90.00000000
_cell_angle_gamma   90.00000000
_symmetry_Int_Tables_number   1
_chemical_formula_structural   ZnH5C11O4
_chemical_formula_sum   'Zn16 H80 C176 O64'
_cell_volume   5253.26911507
_cell_formula_units_Z   16
loop_
 _symmetry_equiv_pos_site_id
 _symmetry_equiv_pos_as_xyz
  1  'x, y, z'
loop_
 _atom_site_type_symbol
 _atom_site_label
 _atom_site_symmetry_multiplicity
 _atom_site_fract_x
 _atom_site_fract_y
 _atom_site_fract_z
 _atom_site_occupancy
  H  H0  1  0.15097888  0.19049997  0.18838256  1
  H  H1  1  0.08278898  0.11640774  0.21579488  1
  C  C2  1  0.07796114  0.04724376  0.18359383  1
  Zn  Zn3  1  0.01041402  0.27916495  0.22463778  1
  C  C4  1  0.18716913  0.14500718  0.18855765  1
  O  O5  1  0.01607672  0.38458909  0.32901031  1
  H  H6  1  0.09778090  0.30458962  0.26973027  1
  H  H7  1  0.07800249  0.41066591  0.08224671  1
  O  O8  1  0.09045383  0.24218837  0.25312610  1
  H  H9  1  0.17901060  0.33252548  0.06960340  1
  H  H10  1  0.05952849  0.40410755  0.48083211  1
  C  C11  1  0.02674604  0.00500289  0.16701051  1
  C  C12  1  0.18246328  0.04582829  0.17142789  1
  C  C13  1  0.12744743  0.00507122  0.15666507  1
  C  C14  1  0.09146385  0.36215624  0.03107293  1
  C  C15  1  0.14362430  0.32076561  0.02517491  1
  C  C16  1  0.24124332  0.18113651  0.19785968  1
  C  C17  1  0.16406548  0.39669288  0.66876405  1
  C  C18  1  0.20359239  0.05120467  0.84037199  1
  O  O19  1  0.07605487  0.20120916  0.83072094  1
  C  C20  1  0.07357441  0.47209704  0.64263451  1
  C  C21  1  0.21068371  0.40251833  0.82048872  1
  H  H22  1  0.11897511  0.39300349  0.54246769  1
  C  C23  1  0.21353945  0.35392427  0.63067231  1
  C  C24  1  0.00936363  0.26764288  0.98280163  1
  H  H25  1  0.02001630  0.19095913  0.97959685  1
  C  C26  1  0.22027008  0.44890352  0.90761188  1
  O  O27  1  0.10260976  0.07433898  0.75641516  1
  C  C28  1  0.11298223  0.12974803  0.81370347  1
  C  C29  1  0.16847108  0.12447038  0.85943214  1
  C  C30  1  0.14792197  0.26376582  0.95119239  1
  C  C31  1  0.09554757  0.28086252  0.89539890  1
  C  C32  1  0.05729160  0.32341784  0.96397824  1
  C  C33  1  0.16440653  0.42242012  0.76362365  1
  C  C34  1  0.18708301  0.19223930  0.92546939  1
  H  H35  1  0.10874250  0.33055989  0.83974605  1
  C  C36  1  0.12024505  0.41847961  0.61023586  1
  C  C37  1  0.02933883  0.49857590  0.58419726  1
  C  C38  1  0.11830227  0.47555462  0.79067840  1
  O  O39  1  0.24933721  0.31935861  0.59385388  1
  C  C40  1  0.24047448  0.18613667  0.96696812  1
  H  H41  1  0.18859648  0.00091727  0.79462305  1
  H  H42  1  0.11853959  0.49831696  0.86273623  1
  C  C43  1  0.07378273  0.49726744  0.73547547  1
  C  C44  1  0.02946167  0.45847119  0.50121275  1
  C  C45  1  0.19654350  0.69857504  0.38111595  1
  C  C46  1  0.05638057  0.73306001  0.47995764  1
  C  C47  1  0.10792800  0.67849994  0.19146051  1
  C  C48  1  0.02317791  0.91050107  0.12697553  1
  H  H49  1  0.05721716  0.56545257  0.34349524  1
  H  H50  1  0.07118237  0.79936714  0.05680874  1
  O  O51  1  0.13671942  0.63887028  0.14096125  1
  C  C52  1  0.17435603  0.87569186  0.06620296  1
  C  C53  1  0.07130310  0.87026774  0.09240491  1
  Zn  Zn54  1  0.13229045  0.75463940  0.30528356  1
  C  C55  1  0.19380448  0.61926867  0.40237266  1
  C  C56  1  0.12469443  0.91466133  0.10558066  1
  C  C57  1  0.06721447  0.71009910  0.38926946  1
  O  O58  1  0.13313745  0.56319622  0.38106779  1
  C  C59  1  0.22919094  0.98653951  0.17562815  1
  C  C60  1  0.09017620  0.61790093  0.36992837  1
  H  H61  1  0.23278478  0.74598037  0.39841384  1
  O  O62  1  0.21189381  0.83676717  0.03530402  1
  O  O63  1  0.22835880  0.57225979  0.44316396  1
  C  C64  1  0.04402626  0.76409565  0.31471161  1
  H  H65  1  0.00831568  0.81306557  0.32133112  1
  H  H66  1  0.22739405  0.90766512  0.16799372  1
  C  C67  1  0.05488659  0.71860769  0.22581785  1
  H  H68  1  0.01941814  0.71568785  0.17782656  1
  H  H69  1  0.07317628  0.73776081  0.82472482  1
  C  C70  1  0.09149784  0.74820442  0.62774055  1
  H  H71  1  0.24065433  0.91293462  0.74835278  1
  O  O72  1  0.18889939  0.50864857  0.94133765  1
  C  C73  1  0.09434668  0.70853601  0.54753455  1
  H  H74  1  0.05313621  0.98611901  0.97037212  1
  C  C75  1  0.08274769  0.81481037  0.81067305  1
  C  C76  1  0.04642434  0.80589773  0.65622579  1
  C  C77  1  0.13816848  0.73205185  0.68599166  1
  O  O78  1  0.17657641  0.68791408  0.64392033  1
  H  H79  1  0.12219221  0.85931405  0.93646348  1
  C  C80  1  0.08844261  0.86985289  0.89001517  1
  C  C81  1  0.03912928  0.84585715  0.74552946  1
  C  C82  1  0.23297950  0.65560889  0.70211560  1
  H  H83  1  0.12890995  0.66333415  0.52454301  1
  O  O84  1  0.02096752  0.57346595  0.84373143  1
  C  C85  1  0.00249592  0.91872957  0.76702899  1
  O  O86  1  0.14293371  0.75837368  0.76347689  1
  C  C87  1  0.05005013  0.94020260  0.91135632  1
  C  C88  1  0.02932652  0.55493980  0.76999822  1
  C  C89  1  0.00483411  0.95549768  0.85272155  1
  C  C90  1  0.00550142  0.78604885  0.50239707  1
  C  C91  1  0.00606545  0.82217017  0.59065593  1
  H  H92  1  0.22950379  0.68676117  0.76949519  1
  H  H93  1  0.25320448  0.25590165  0.19878271  1
  C  C94  1  0.29874750  0.40111127  0.03010303  1
  C  C95  1  0.28847677  0.12153989  0.19756789  1
  H  H96  1  0.33338966  0.14893489  0.19689502  1
  C  C97  1  0.47818835  0.48508398  0.08173200  1
  H  H98  1  0.34153859  0.36592669  0.03253243  1
  H  H99  1  0.25011556  0.23102940  0.02194157  1
  C  C100  1  0.48395949  0.41775126  0.01133045  1
  C  C101  1  0.28058286  0.02498021  0.19184800  1
  O  O102  1  0.34582637  0.16701306  0.03700356  1
  O  O103  1  0.49970639  0.04807941  0.07801621  1
  O  O104  1  0.26115707  0.38948784  0.19140937  1
  C  C105  1  0.26851013  0.40795538  0.11771759  1
  C  C106  1  0.27326690  0.40526394  0.93809716  1
  C  C107  1  0.32624119  0.10497694  0.99518444  1
  H  H108  1  0.36531350  0.42260245  0.70440898  1
  H  H109  1  0.33217468  0.29670883  0.87976653  1
  H  H110  1  0.26401504  0.30126651  0.74360591  1
  C  C111  1  0.45413140  0.43299798  0.93047853  1
  C  C112  1  0.39290430  0.42404642  0.76354281  1
  H  H113  1  0.43953776  0.30114895  0.73763060  1
  C  C114  1  0.43337888  0.35992083  0.77976421  1
  C  C115  1  0.27230137  0.10761959  0.94858654  1
  C  C116  1  0.29453799  0.34075220  0.87188571  1
  C  C117  1  0.47155085  0.37544231  0.85446430  1
  C  C118  1  0.25680185  0.34243406  0.80420545  1
  O  O119  1  0.36163806  0.02090056  0.98389548  1
  C  C120  1  0.38064956  0.48577935  0.83568304  1
  C  C121  1  0.40505819  0.48504661  0.91937590  1
  C  C122  1  0.25486573  0.03749965  0.88366081  1
  H  H123  1  0.45371803  0.55010136  0.07282615  1
  O  O124  1  0.47005843  0.61729523  0.21793992  1
  C  C125  1  0.32958493  0.95613686  0.19820324  1
  Zn  Zn126  1  0.26101270  0.53559534  0.05988012  1
  O  O127  1  0.32304881  0.87271055  0.20274484  1
  C  C128  1  0.49815659  0.54881330  0.22303964  1
  O  O129  1  0.37755860  0.99419604  0.19183610  1
  Zn  Zn130  1  0.42817906  0.98455593  0.07363961  1
  C  C131  1  0.45263692  0.70930145  0.49679060  1
  O  O132  1  0.44176810  0.85143955  0.01441788  1
  H  H133  1  0.31055731  0.91888962  0.00004360  1
  C  C134  1  0.27958271  0.60115688  0.69429357  1
  C  C135  1  0.37055736  0.85355549  0.90186672  1
  C  C136  1  0.27770438  0.90284362  0.79011821  1
  O  O137  1  0.31892566  0.61089272  0.86726239  1
  C  C138  1  0.33820517  0.55646295  0.81777198  1
  H  H139  1  0.30693937  0.78449134  0.70648969  1
  C  C140  1  0.42169689  0.82223530  0.94052872  1
  C  C141  1  0.35705227  0.80940465  0.82358242  1
  Zn  Zn142  1  0.25005516  0.56659706  0.57606192  1
  H  H143  1  0.38461921  0.74778828  0.80569670  1
  O  O144  1  0.32501522  0.56078518  0.72272263  1
  O  O145  1  0.44890642  0.76069470  0.89939966  1
  C  C146  1  0.33233076  0.93144350  0.93504189  1
  H  H147  1  0.38890529  0.52787792  0.96947911  1
  C  C148  1  0.29009680  0.95449273  0.86571519  1
  C  C149  1  0.31370437  0.83035886  0.76445468  1
  O  O150  1  0.40496429  0.71380168  0.51211722  1
  H  H151  1  0.64115303  0.38420716  0.39772850  1
  H  H152  1  0.73620111  0.22885720  0.20204907  1
  C  C153  1  0.56058666  0.20018121  0.25052921  1
  C  C154  1  0.66316665  0.15200445  0.41271658  1
  H  H155  1  0.52163169  0.19967833  0.20906641  1
  H  H156  1  0.65105965  0.12174684  0.47725387  1
  C  C157  1  0.59063421  0.27888169  0.27559002  1
  H  H158  1  0.57314079  0.26164065  0.10265553  1
  C  C159  1  0.53785600  0.38222742  0.17289256  1
  C  C160  1  0.56777465  0.36920753  0.25132507  1
  C  C161  1  0.68042685  0.12063681  0.25412103  1
  C  C162  1  0.54408890  0.31977738  0.10206157  1
  C  C163  1  0.57464753  0.45054820  0.31445295  1
  C  C164  1  0.51391119  0.33078942  0.02390503  1
  C  C165  1  0.58486539  0.11597626  0.29189612  1
  C  C166  1  0.71745320  0.26345213  0.32940593  1
  C  C167  1  0.69110680  0.05353666  0.18169388  1
  C  C168  1  0.69399619  0.23845978  0.41347063  1
  C  C169  1  0.55522520  0.02236303  0.28822950  1
  H  H170  1  0.50927026  0.01418024  0.13433756  1
  C  C171  1  0.59949982  0.42193650  0.40441950  1
  H  H172  1  0.62372453  0.27232362  0.32435196  1
  C  C173  1  0.64482783  0.11460570  0.33104578  1
  C  C174  1  0.71109033  0.20512714  0.25724454  1
  O  O175  1  0.56808269  0.33798145  0.45570031  1
  C  C176  1  0.50719146  0.47248981  0.15854360  1
  C  C177  1  0.74013340  0.06642845  0.13136521  1
  H  H178  1  0.65876370  0.34442849  0.00852135  1
  C  C179  1  0.61949012  0.47871690  0.01970407  1
  C  C180  1  0.70751237  0.30157417  0.48567564  1
  C  C181  1  0.73841622  0.38502704  0.47533886  1
  H  H182  1  0.62877145  0.48965472  0.09121846  1
  H  H183  1  0.56156851  0.35365422  0.71499979  1
  C  C184  1  0.61200205  0.47495193  0.74133758  1
  Zn  Zn185  1  0.56236112  0.05317824  0.98888217  1
  C  C186  1  0.56457839  0.34056055  0.54223827  1
  C  C187  1  0.59057554  0.41581239  0.59519886  1
  C  C188  1  0.58355930  0.41017045  0.68610299  1
  O  O189  1  0.54281261  0.27787243  0.58227081  1
  H  H190  1  0.66633957  0.21317324  0.58013400  1
  C  C191  1  0.68940150  0.27975340  0.57094666  1
  C  C192  1  0.52688885  0.26347624  0.95649547  1
  C  C193  1  0.70318998  0.26913589  0.72217047  1
  C  C194  1  0.71498601  0.32228335  0.64311126  1
  O  O195  1  0.68781977  0.22414851  0.78180406  1
  H  H196  1  0.64753366  0.32512787  0.84616297  1
  O  O197  1  0.50552540  0.27253231  0.87962558  1
  H  H198  1  0.51648439  0.39952616  0.84325891  1
  C  C199  1  0.61454387  0.49620276  0.55165991  1
  C  C200  1  0.63072689  0.38831092  0.88177470  1
  C  C201  1  0.63645943  0.39888154  0.97169862  1
  O  O202  1  0.56188206  0.20137903  0.97728812  1
  H  H203  1  0.74200916  0.38433106  0.64209989  1
  H  H204  1  0.74138774  0.10179702  0.65311870  1
  C  C205  1  0.60444299  0.46572658  0.83772818  1
  O  O206  1  0.57618177  0.04266667  0.84085190  1
  C  C207  1  0.72674077  0.01470294  0.53862774  1
  H  H208  1  0.74933342  0.43178537  0.52978950  1
  O  O209  1  0.58783312  0.65767832  0.10820908  1
  H  H210  1  0.66129987  0.83470817  0.10879545  1
  C  C211  1  0.69445076  0.82470643  0.45476060  1
  C  C212  1  0.65856576  0.96788356  0.17323378  1
  C  C213  1  0.64283937  0.58402952  0.41288306  1
  C  C214  1  0.68310558  0.89583431  0.12390792  1
  C  C215  1  0.73081925  0.90597991  0.07456451  1
  H  H216  1  0.66101787  0.57730600  0.34932576  1
  C  C217  1  0.68604738  0.73825452  0.41572658  1
  C  C218  1  0.74504869  0.97134449  0.45438234  1
  C  C219  1  0.61565571  0.50861649  0.45648841  1
  C  C220  1  0.64932016  0.67246517  0.45367655  1
  H  H221  1  0.70389627  0.71944607  0.35011982  1
  H  H222  1  0.60201291  0.50458462  0.28247286  1
  C  C223  1  0.73359346  0.88443858  0.41267550  1
  C  C224  1  0.57985102  0.62968187  0.03670334  1
  H  H225  1  0.61946960  0.95848196  0.20693286  1
  H  H226  1  0.74721526  0.85246705  0.02718692  1
  Zn  Zn227  1  0.61192069  0.99170555  0.38811765  1
  H  H228  1  0.70315775  0.69619377  0.03497378  1
  Zn  Zn229  1  0.50108267  0.63027052  0.40282476  1
  O  O230  1  0.52539395  0.53014415  0.31259790  1
  O  O231  1  0.52044533  0.96851320  0.26323794  1
  O  O232  1  0.60584329  0.80083144  0.90898368  1
  C  C233  1  0.57824861  0.95906740  0.82826114  1
  C  C234  1  0.64033336  0.55485156  0.70117172  1
  O  O235  1  0.63108913  0.96570804  0.60466122  1
  H  H236  1  0.65800631  0.57482168  0.84127241  1
  C  C237  1  0.57476842  0.54434805  0.88246261  1
  C  C238  1  0.60271979  0.89063858  0.90863342  1
  C  C239  1  0.59182485  0.55287636  0.97640635  1
  O  O240  1  0.68335328  0.62683581  0.82608824  1
  O  O241  1  0.54314245  0.60241484  0.84954163  1
  Zn  Zn242  1  0.52798908  0.70980587  0.94938423  1
  C  C243  1  0.64084084  0.56081056  0.61094010  1
  H  H244  1  0.70075278  0.73253568  0.95057087  1
  C  C245  1  0.67354055  0.63327328  0.73688481  1
  C  C246  1  0.67320769  0.99079646  0.57793774  1
  O  O247  1  0.69074747  0.70167504  0.70190870  1
  Zn  Zn248  1  0.66707315  0.93545338  0.82071792  1
  H  H249  1  0.66912813  0.61665244  0.58843580  1
  H  H250  1  0.56236546  0.91203231  0.77257270  1
  O  O251  1  0.60787266  0.93169075  0.98079889  1
  H  H252  1  0.67454624  0.83792893  0.52010272  1
  H  H253  1  0.62887857  0.68548683  0.51547249  1
  O  O254  1  0.74644765  0.93557092  0.76825709  1
  O  O255  1  0.54466755  0.78513403  0.54469491  1
  C  C256  1  0.51265316  0.73279084  0.51597555  1
  O  O257  1  0.72548428  0.72794241  0.99593120  1
  C  C258  1  0.95892390  0.29039773  0.05201930  1
  C  C259  1  0.98181997  0.44539947  0.35552823  1
  O  O260  1  0.92843504  0.14145253  0.45676038  1
  Zn  Zn261  1  0.85917099  0.04284630  0.32923681  1
  O  O262  1  0.94392145  0.47605552  0.30953209  1
  C  C263  1  0.77994061  0.04318511  0.40830647  1
  O  O264  1  0.75836441  0.41381622  0.40502521  1
  O  O265  1  0.91156217  0.25253970  0.04628970  1
  O  O266  1  0.97612546  0.12528117  0.22909195  1
  C  C267  1  0.82445303  0.09958923  0.46186834  1
  C  C268  1  0.88410280  0.11204558  0.43850593  1
  C  C269  1  0.97703448  0.04847187  0.19396299  1
  O  O270  1  0.77966103  0.36575574  0.25801389  1
  H  H271  1  0.76592891  0.12634234  0.14293836  1
  H  H272  1  0.83203765  0.28408732  0.45131065  1
  C  C273  1  0.98756744  0.48820375  0.44530403  1
  C  C274  1  0.79945296  0.00531953  0.00401698  1
  O  O275  1  0.97037599  0.34362279  0.11614762  1
  H  H276  1  0.75459456  0.08500696  0.35791870  1
  O  O277  1  0.92527805  0.00919186  0.17784344  1
  C  C278  1  0.75396828  0.34617692  0.32128453  1
  C  C279  1  0.88813149  0.37871721  0.63804220  1
  H  H280  1  0.88648194  0.42692389  0.50548588  1
  O  O281  1  0.96765259  0.06257285  0.95248687  1
  C  C282  1  0.84357226  0.29243355  0.52041781  1
  O  O283  1  0.91188473  0.38678758  0.82115742  1
  Zn  Zn284  1  0.88787873  0.16176768  0.94310641  1
  H  H285  1  0.82230405  0.18338297  0.72171784  1
  C  C286  1  0.83980437  0.23115334  0.67391100  1
  C  C287  1  0.83091825  0.21739219  0.58049039  1
  O  O288  1  0.85887591  0.26630714  0.84470642  1
  C  C289  1  0.86819068  0.31245080  0.69728646  1
  C  C290  1  0.87987442  0.32286815  0.79519076  1
  O  O291  1  0.91418396  0.04357661  0.84449118  1
  H  H292  1  0.91608551  0.43586683  0.65600553  1
  C  C293  1  0.87277384  0.37133159  0.55106482  1
  C  C294  1  0.80269551  0.13071337  0.54726382  1
  C  C295  1  0.96162867  0.02481704  0.88284135  1
  Zn  Zn296  1  0.98111291  0.37417219  0.91013764  1
  C  C297  1  0.75886842  0.08278091  0.58757245  1
  O  O298  1  0.81126584  0.08955973  0.98569734  1
  C  C299  1  0.87710289  0.86618144  0.11316830  1
  C  C300  1  0.92232957  0.92567125  0.14004420  1
  C  C301  1  0.95323635  0.78120581  0.06956416  1
  C  C302  1  0.95633962  0.80293499  0.44657486  1
  O  O303  1  0.91809696  0.81381972  0.40147734  1
  C  C304  1  0.89575559  0.78408080  0.06894319  1
  H  H305  1  0.83225750  0.88716151  0.12124387  1
  O  O306  1  0.75848418  0.80279369  0.27836688  1
  H  H307  1  0.97995870  0.72703807  0.04000450  1
  C  C308  1  0.96830799  0.86677198  0.11536698  1
  Zn  Zn309  1  0.83665307  0.69327687  0.01487185  1
  H  H310  1  0.91616682  0.57659415  0.41790282  1
  O  O311  1  0.82272379  0.63795466  0.44336453  1
  C  C312  1  0.94381103  0.54941586  0.47064138  1
  C  C313  1  0.76379024  0.86634619  0.32945671  1
  C  C314  1  0.75605658  0.99333689  0.07653189  1
  H  H315  1  0.78822691  0.92524540  0.29749431  1
  H  H316  1  0.93565578  0.59122985  0.89309336  1
  Zn  Zn317  1  0.78930022  0.72631912  0.60959577  1
  O  O318  1  0.78524838  0.50610875  0.64251451  1
  H  H319  1  0.97362902  0.86897284  0.61185874  1
  C  C320  1  0.77718890  0.86855538  0.74488600  1
  C  C321  1  0.86679687  0.68474906  0.88837785  1
  H  H322  1  0.97328521  0.94720120  0.71621259  1
  C  C323  1  0.90028165  0.63092557  0.92447332  1
  C  C324  1  0.81069881  0.80668640  0.81897960  1
  C  C325  1  0.79382789  0.57008659  0.59536964  1
  O  O326  1  0.84662283  0.74055999  0.80694215  1
  O  O327  1  0.78516854  0.85604059  0.66555701  1
  Zn  Zn328  1  0.85661050  0.93184666  0.81037192  1
  O  O329  1  0.81977402  0.93866371  0.96260870  1
  H  H330  1  0.91115747  0.62570687  0.57215352  1
  H  H331  1  0.79092546  0.80629165  0.88610789  1
  C  C332  1  0.94508514  0.58063699  0.55536644  1
  O  O333  1  0.98452191  0.58592091  0.70160557  1
  C  C334  1  0.98496429  0.55916590  0.61966109  1
  C  C335  1  0.80992463  0.62706145  0.51873325  1
