# generated using pymatgen
data_CuH32C45N4
_symmetry_space_group_name_H-M   'P 1'
_cell_length_a   8.25381547
_cell_length_b   15.31902047
_cell_length_c   23.82133005
_cell_angle_alpha   90.00000000
_cell_angle_beta   90.00000000
_cell_angle_gamma   90.00000000
_symmetry_Int_Tables_number   1
_chemical_formula_structural   CuH32C45N4
_chemical_formula_sum   'Cu4 H128 C180 N16'
_cell_volume   3011.97774075
_cell_formula_units_Z   4
loop_
 _symmetry_equiv_pos_site_id
 _symmetry_equiv_pos_as_xyz
  1  'x, y, z'
loop_
 _atom_site_type_symbol
 _atom_site_label
 _atom_site_symmetry_multiplicity
 _atom_site_fract_x
 _atom_site_fract_y
 _atom_site_fract_z
 _atom_site_occupancy
  H  H0  1  0.38323573  0.29568055  0.22398086  1
  H  H1  1  0.15117129  0.25955372  0.16056472  1
  C  C2  1  0.39118934  0.23686010  0.19645978  1
  H  H3  1  0.17819746  0.37676577  0.08666969  1
  C  C4  1  0.34340659  0.18658564  0.00927694  1
  C  C5  1  0.27749791  0.15463699  0.11720144  1
  C  C6  1  0.26218487  0.22037769  0.15994912  1
  C  C7  1  0.41805757  0.10024661  0.11867852  1
  C  C8  1  0.13187789  0.12892923  0.07898114  1
  H  H9  1  0.36616904  0.23723867  0.04106918  1
  C  C10  1  0.29046898  0.37731562  0.05722155  1
  H  H11  1  0.43423062  0.06103095  0.08106555  1
  C  C12  1  0.22619162  0.12173407  0.02162231  1
  C  C13  1  0.04738881  0.04371314  0.10320446  1
  C  C14  1  0.07223457  0.02758533  0.16280539  1
  H  H15  1  0.18344097  0.05118091  0.18214948  1
  N  N16  1  0.28178727  0.40849085  0.00444013  1
  C  C17  1  0.43739130  0.35445701  0.08170197  1
  H  H18  1  0.43903577  0.33593375  0.12924094  1
  C  C19  1  0.29587930  0.43894438  0.46604855  1
  C  C20  1  0.31740916  0.06137244  0.41083499  1
  C  C21  1  0.35341572  0.14306355  0.32465039  1
  C  C22  1  0.35327082  0.46985858  0.41269452  1
  C  C23  1  0.24765839  0.21344972  0.39908624  1
  C  C24  1  0.23894671  0.13711681  0.43221364  1
  H  H25  1  0.03446007  0.10376880  0.27466702  1
  H  H26  1  0.17360979  0.13605169  0.47424323  1
  C  C27  1  0.38166737  0.37591006  0.49672702  1
  N  N28  1  0.30339554  0.21792788  0.34743493  1
  C  C29  1  0.36979884  0.06325713  0.35535249  1
  H  H30  1  0.07884234  0.06848387  0.34612359  1
  H  H31  1  0.39196158  0.15221156  0.28007861  1
  H  H32  1  0.21584317  0.28232103  0.40544808  1
  H  H33  1  0.18147166  0.46381130  0.48276580  1
  H  H34  1  0.44289911  0.13813554  0.48895238  1
  H  H35  1  0.04406256  0.23386557  0.31589234  1
  H  H36  1  0.43653613  0.00396986  0.33810739  1
  C  C37  1  0.30736746  0.23949494  0.63467623  1
  H  H38  1  0.34313823  0.47305718  0.59801132  1
  H  H39  1  0.24545047  0.11846832  0.71841469  1
  C  C40  1  0.40450298  0.16061052  0.53163411  1
  C  C41  1  0.05180603  0.13589915  0.62513647  1
  C  C42  1  0.40665602  0.45932115  0.68659070  1
  C  C43  1  0.44120201  0.27507969  0.60435851  1
  C  C44  1  0.21833531  0.16758797  0.61208138  1
  H  H45  1  0.27089823  0.26798291  0.67520274  1
  H  H46  1  0.17099985  0.30319944  0.56151530  1
  C  C47  1  0.27234698  0.12558937  0.56167688  1
  C  C48  1  0.30271934  0.45012345  0.64093075  1
  C  C49  1  0.14240540  0.41701301  0.64769886  1
  H  H50  1  0.21404799  0.06451357  0.54935347  1
  H  H51  1  0.33919845  0.34856141  0.53809511  1
  H  H52  1  0.03552889  0.00432351  0.58857093  1
  C  C53  1  0.04655799  0.32552377  0.56386525  1
  N  N54  1  0.37289417  0.42794048  0.73631748  1
  C  C55  1  0.10727712  0.39323322  0.70349261  1
  N  N56  1  0.48886800  0.11331564  0.73449457  1
  C  C57  1  0.01466126  0.39207853  0.60278567  1
  C  C58  1  0.48009620  0.23923265  0.55087096  1
  C  C59  1  0.22723966  0.39701052  0.74558089  1
  C  C60  1  0.25852729  0.06655846  0.92417278  1
  C  C61  1  0.42270215  0.19086180  0.95799630  1
  C  C62  1  0.30193505  0.14902858  0.80867738  1
  H  H63  1  0.00053847  0.08760294  0.84192335  1
  C  C64  1  0.36871738  0.13707277  0.91233236  1
  H  H65  1  0.17978778  0.01807566  0.76320916  1
  H  H66  1  0.17222848  0.15726127  0.82289011  1
  C  C67  1  0.42433228  0.14259116  0.85081326  1
  C  C68  1  0.05805120  0.27672546  0.89461002  1
  H  H69  1  0.21664680  0.37932901  0.78975349  1
  H  H70  1  0.16948963  0.40664668  0.87772014  1
  H  H71  1  0.17799753  0.24183349  0.89470342  1
  H  H72  1  0.22383479  0.01934474  0.89089102  1
  H  H73  1  0.38407009  0.44921779  0.92724701  1
  C  C74  1  0.19531416  0.05911959  0.97941613  1
  C  C75  1  0.06273032  0.36568785  0.87978402  1
  H  H76  1  0.10307836  0.00679751  0.98529927  1
  H  H77  1  0.36080103  0.01599581  0.80644836  1
  C  C78  1  0.33735704  0.12905153  0.75241932  1
  C  C79  1  0.41087513  0.41639324  0.97028619  1
  H  H80  1  0.16931788  0.42719802  0.99233981  1
  H  H81  1  0.07947692  0.25031182  0.99538975  1
  H  H82  1  0.15468941  0.89665340  0.13848678  1
  C  C83  1  0.24524839  0.76956217  0.11235000  1
  C  C84  1  0.34538095  0.88718465  0.04021818  1
  H  H85  1  0.22750977  0.92258382  0.05306859  1
  N  N86  1  0.03025318  0.71888418  0.19980764  1
  H  H87  1  0.25895731  0.62847146  0.10027396  1
  C  C88  1  0.04370324  0.80224975  0.18751084  1
  C  C89  1  0.36235694  0.80178385  0.06868547  1
  C  C90  1  0.15664841  0.82843376  0.14810491  1
  C  C91  1  0.21299844  0.68134067  0.12693512  1
  H  H92  1  0.05291928  0.59503353  0.18316608  1
  C  C93  1  0.09782981  0.66017716  0.16842900  1
  C  C94  1  0.46853912  0.80301193  0.21268176  1
  H  H95  1  0.22154049  0.60438319  0.24243581  1
  H  H96  1  0.27420740  0.75459693  0.45695516  1
  C  C97  1  0.04233150  0.99803944  0.35050421  1
  C  C98  1  0.11607752  0.56674741  0.40175868  1
  C  C99  1  0.28121182  0.89742449  0.43443056  1
  H  H100  1  0.22841277  0.92679624  0.29516997  1
  N  N101  1  0.07183684  0.84454662  0.32848014  1
  H  H102  1  0.37155746  0.60763004  0.47412362  1
  Cu  Cu103  1  0.19067177  0.75754361  0.29392884  1
  C  C104  1  0.02760449  0.61954710  0.36400416  1
  C  C105  1  0.11803125  0.92629458  0.32312649  1
  N  N106  1  0.05947225  0.63021444  0.31055971  1
  H  H107  1  0.16722658  0.89860950  0.41297552  1
  C  C108  1  0.19608888  0.59992045  0.28838105  1
  N  N109  1  0.38106048  0.81007927  0.25726654  1
  C  C110  1  0.34409018  0.81975917  0.45857564  1
  H  H111  1  0.06224309  0.54182671  0.44110110  1
  C  C112  1  0.37424043  0.97649545  0.43860136  1
  C  C113  1  0.30802132  0.56174922  0.32293767  1
  C  C114  1  0.49592509  0.82284835  0.48537419  1
  H  H115  1  0.42955331  0.54142805  0.30776465  1
  C  C116  1  0.26042302  0.53520432  0.37798409  1
  C  C117  1  0.33847659  0.88890216  0.69081171  1
  C  C118  1  0.16560323  0.62920208  0.59988515  1
  H  H119  1  0.23077980  0.72447480  0.66609154  1
  C  C120  1  0.34121329  0.62620115  0.51766184  1
  C  C121  1  0.41389230  0.93634647  0.60293892  1
  C  C122  1  0.43614821  0.69354616  0.54181652  1
  C  C123  1  0.26217709  0.69557501  0.62500804  1
  C  C124  1  0.27171885  0.90582516  0.57652472  1
  C  C125  1  0.15433545  0.87119423  0.61313225  1
  N  N126  1  0.44822128  0.92017622  0.65567077  1
  C  C127  1  0.18364472  0.86339705  0.67233828  1
  H  H128  1  0.24707041  0.91724627  0.53099748  1
  H  H129  1  0.09466791  0.83836968  0.70336742  1
  C  C130  1  0.20539286  0.59390647  0.54672412  1
  C  C131  1  0.38814374  0.73121693  0.59310151  1
  H  H132  1  0.11960650  0.55504066  0.70244294  1
  H  H133  1  0.39256730  0.88277938  0.73243492  1
  H  H134  1  0.44074266  0.79640857  0.60331976  1
  C  C135  1  0.00778315  0.58400962  0.68824190  1
  C  C136  1  0.00816814  0.61343883  0.63195702  1
  H  H137  1  0.10464620  0.81880286  0.50320446  1
  H  H138  1  0.12664254  0.54150718  0.53056820  1
  C  C139  1  0.29755270  0.80748312  0.86277899  1
  C  C140  1  0.39228474  0.55483630  0.84509621  1
  H  H141  1  0.19171572  0.76252090  0.86474444  1
  C  C142  1  0.10873925  0.75379251  0.96468812  1
  C  C143  1  0.25240160  0.59849293  0.86112226  1
  C  C144  1  0.08590626  0.96934069  0.76556742  1
  C  C145  1  0.27021971  0.88198212  0.82856959  1
  C  C146  1  0.08238840  0.67389644  0.93469273  1
  C  C147  1  0.11367834  0.89196974  0.79818442  1
  C  C148  1  0.37984099  0.95503821  0.82979909  1
  H  H149  1  0.46885859  0.74631112  0.91755463  1
  H  H150  1  0.15439049  0.61582169  0.83177710  1
  C  C151  1  0.23142485  0.62173806  0.91843734  1
  H  H152  1  0.43390143  0.96936166  0.97192005  1
  C  C153  1  0.36964425  0.61171248  0.95389502  1
  C  C154  1  0.44276805  0.80402656  0.89443838  1
  H  H155  1  0.36418550  0.64785698  0.99270452  1
  H  H156  1  0.41203945  0.53353031  0.80103428  1
  C  C157  1  0.45756815  0.91408795  0.99937824  1
  H  H158  1  0.23285576  0.76321026  0.98586597  1
  C  C159  1  0.74868383  0.26671838  0.11553022  1
  H  H160  1  0.89651306  0.17421212  0.15867726  1
  C  C161  1  0.53809877  0.10291151  0.15910888  1
  C  C162  1  0.72890557  0.31053960  0.06080315  1
  C  C163  1  0.88429268  0.21430180  0.12087388  1
  H  H164  1  0.64290084  0.05738391  0.16023178  1
  C  C165  1  0.83156704  0.44806814  0.22672982  1
  H  H166  1  0.66350414  0.27623387  0.14830424  1
  C  C167  1  0.52452415  0.17471304  0.19817070  1
  C  C168  1  0.78676146  0.13002769  0.23770612  1
  C  C169  1  0.85528145  0.30876899  0.01677792  1
  H  H170  1  0.63870639  0.02474458  0.00072579  1
  H  H171  1  0.92932188  0.40417870  0.21537510  1
  C  C172  1  0.57489362  0.35338017  0.04564306  1
  H  H173  1  0.77625455  0.06957615  0.21186059  1
  C  C174  1  0.65686826  0.19093220  0.23929921  1
  N  N175  1  0.74093404  0.46972863  0.18232415  1
  C  C176  1  0.99790698  0.19870219  0.07640026  1
  H  H177  1  0.90930573  0.00951228  0.02806524  1
  C  C178  1  0.98411621  0.25180519  0.02740853  1
  C  C179  1  0.73447017  0.11595914  0.38731114  1
  C  C180  1  0.68862979  0.19668479  0.47314782  1
  H  H181  1  0.72768186  0.11266375  0.34151199  1
  H  H182  1  0.84804133  0.34675248  0.31793856  1
  C  C183  1  0.93013093  0.14872341  0.26868010  1
  C  C184  1  0.58900653  0.37561990  0.42187897  1
  C  C185  1  0.82960873  0.05501962  0.41801800  1
  C  C186  1  0.65854826  0.18728271  0.41420588  1
  H  H187  1  0.57854675  0.23177590  0.39053102  1
  N  N188  1  0.93954800  0.22544825  0.29636162  1
  C  C189  1  0.50843855  0.44062490  0.39249277  1
  C  C190  1  0.53221012  0.34473771  0.47351319  1
  H  H191  1  0.89266017  0.45875512  0.31476216  1
  H  H192  1  0.59168729  0.04679906  0.46573186  1
  C  C193  1  0.85015308  0.05775684  0.47732960  1
  C  C194  1  0.82191712  0.28905518  0.29397555  1
  H  H195  1  0.71250527  0.35257055  0.40719656  1
  H  H196  1  0.55854354  0.46039042  0.35207729  1
  C  C197  1  0.67299605  0.27366656  0.26574239  1
  H  H198  1  0.58084671  0.32709516  0.26515155  1
  C  C199  1  0.82156271  0.48736244  0.28012473  1
  H  H200  1  0.96464565  0.23757036  0.49951136  1
  C  C201  1  0.92660641  0.29305502  0.52716282  1
  C  C202  1  0.80483970  0.04464755  0.61698183  1
  H  H203  1  0.60329634  0.40740819  0.58231341  1
  H  H204  1  0.52953038  0.48652223  0.68792238  1
  C  C205  1  0.78484159  0.17601218  0.66300395  1
  H  H206  1  0.91345144  0.03142833  0.70395852  1
  C  C207  1  0.85255058  0.42497704  0.60889189  1
  H  H208  1  0.77055191  0.13585470  0.55040801  1
  C  C209  1  0.76260250  0.32034852  0.53394924  1
  C  C210  1  0.97133536  0.05704407  0.60938579  1
  C  C211  1  0.72978349  0.39028489  0.57296335  1
  N  N212  1  0.71888157  0.10218100  0.64468654  1
  C  C213  1  0.94754193  0.19831479  0.65108159  1
  H  H214  1  0.68572522  0.21167623  0.68107624  1
  Cu  Cu215  1  0.50650574  0.07201868  0.65947773  1
  C  C216  1  0.61116951  0.26989921  0.50810106  1
  H  H217  1  0.82497474  0.47344097  0.64138807  1
  H  H218  1  0.50045679  0.33459657  0.62025301  1
  H  H219  1  0.98787159  0.36570191  0.70930185  1
  H  H220  1  0.99449259  0.26356584  0.66180150  1
  C  C221  1  0.77139402  0.13001942  0.50366667  1
  H  H222  1  0.92581936  0.01285958  0.50150143  1
  H  H223  1  0.65700047  0.39192960  0.95727749  1
  C  C224  1  0.79875596  0.36984000  0.86411737  1
  C  C225  1  0.90867997  0.23423878  0.90072140  1
  C  C226  1  0.78637177  0.11998042  0.96511164  1
  C  C227  1  0.92041845  0.07168856  0.87706968  1
  H  H228  1  0.68853729  0.11437047  0.85812655  1
  H  H229  1  0.70997418  0.42013646  0.85544935  1
  H  H230  1  0.66203857  0.25811662  0.89403266  1
  C  C231  1  0.77537533  0.28559818  0.88534217  1
  H  H232  1  0.74202836  0.17328304  0.99286167  1
  C  C233  1  0.87062762  0.13916931  0.91485589  1
  C  C234  1  0.60404764  0.11398763  0.77101139  1
  C  C235  1  0.72658169  0.03331227  0.96898826  1
  C  C236  1  0.58427174  0.12964956  0.82837191  1
  N  N237  1  0.93529303  0.41162261  0.86694014  1
  H  H238  1  0.72723131  0.09293491  0.75241477  1
  C  C239  1  0.55827944  0.38799748  0.98971322  1
  H  H240  1  0.84567054  0.35372959  0.98145820  1
  H  H241  1  0.52267464  0.23984423  0.95301356  1
  C  C242  1  0.69666134  0.89263456  0.19687095  1
  H  H243  1  0.98970798  0.96523336  0.23875873  1
  C  C244  1  0.82776165  0.93931407  0.16422234  1
  H  H245  1  0.95667992  0.84207839  0.21040727  1
  C  C246  1  0.61477054  0.77437772  0.01902443  1
  H  H247  1  0.71546173  0.73432936  0.00810968  1
  C  C248  1  0.82393712  0.93812294  0.10328070  1
  C  C249  1  0.96228038  0.97725587  0.19421594  1
  C  C250  1  0.63488420  0.53622423  0.18968411  1
  H  H251  1  0.75068638  0.89161548  0.07813178  1
  C  C252  1  0.59685167  0.82206376  0.17710890  1
  C  C253  1  0.60754443  0.57215327  0.24334109  1
  H  H254  1  0.51903385  0.68637571  0.08291455  1
  C  C255  1  0.92735986  0.99583716  0.07322334  1
  H  H256  1  0.61553487  0.78750314  0.13720598  1
  H  H257  1  0.58503310  0.55828393  0.14989550  1
  C  C258  1  0.50015596  0.74776308  0.06021490  1
  C  C259  1  0.85811624  0.88929902  0.38859297  1
  C  C260  1  0.58557449  0.90323750  0.49107686  1
  C  C261  1  0.67364650  0.60354715  0.44977102  1
  C  C262  1  0.94844561  0.82314300  0.36307432  1
  C  C263  1  0.71108207  0.56339588  0.39771739  1
  H  H264  1  0.71744672  0.57306030  0.48794826  1
  H  H265  1  0.52362827  0.79163064  0.39420882  1
  C  C266  1  0.67422864  0.60374179  0.34456521  1
  C  C267  1  0.60647643  0.68945168  0.34336718  1
  C  C268  1  0.60712332  0.68781921  0.44945338  1
  C  C269  1  0.90389346  0.97888455  0.38334453  1
  H  H270  1  0.74295147  0.87496826  0.40939568  1
  C  C271  1  0.70615335  0.55405424  0.29041817  1
  H  H272  1  0.84517858  0.76623641  0.46399421  1
  H  H273  1  0.68290616  0.96542271  0.27511122  1
  H  H274  1  0.93445095  0.75235517  0.36701743  1
  H  H275  1  0.56534014  0.72038968  0.30585790  1
  C  C276  1  0.57547718  0.72812579  0.39525118  1
  C  C277  1  0.52755381  0.97897270  0.46578343  1
  H  H278  1  0.91495147  0.65196330  0.37649767  1
  C  C279  1  0.63680386  0.91184738  0.25160874  1
  C  C280  1  0.50241282  0.86234064  0.26554994  1
  Cu  Cu281  1  0.91136044  0.69048008  0.26526749  1
  H  H282  1  0.78353830  0.50243099  0.39875774  1
  H  H283  1  0.50669485  0.61588164  0.25144241  1
  C  C284  1  0.71239544  0.60195747  0.64527810  1
  C  C285  1  0.86303674  0.57027943  0.71969929  1
  N  N286  1  0.71943046  0.58827891  0.70095828  1
  C  C287  1  0.72525619  0.78060004  0.60412040  1
  H  H288  1  0.88444248  0.82715866  0.67059551  1
  Cu  Cu289  1  0.63953476  0.93529119  0.69253226  1
  H  H290  1  0.62530199  0.76185174  0.63417752  1
  C  C291  1  0.71559654  0.76169898  0.54651247  1
  C  C292  1  0.86967235  0.81600002  0.62584628  1
  H  H293  1  0.73897368  0.98401340  0.60663370  1
  H  H294  1  0.58275461  0.60772991  0.63564652  1
  C  C295  1  0.84723707  0.61438717  0.60977799  1
  N  N296  1  0.82446268  0.92400528  0.73596095  1
  H  H297  1  0.83458387  0.63903501  0.56585008  1
  H  H298  1  0.52130613  0.96657722  0.58363191  1
  H  H299  1  0.70388600  0.90163496  0.51099604  1
  C  C300  1  0.99933094  0.83482013  0.58899886  1
  C  C301  1  0.94583301  0.97897690  0.73254742  1
  C  C302  1  0.85193438  0.77990779  0.50989013  1
  C  C303  1  0.57390992  0.73741719  0.50633037  1
  C  C304  1  0.99510325  0.81390090  0.53125459  1
  C  C305  1  0.56385236  0.87284965  0.89439116  1
  C  C306  1  0.59740182  0.85636588  0.99198821  1
  C  C307  1  0.83688415  0.80452192  0.93209868  1
  C  C308  1  0.70292264  0.87580942  0.93973811  1
  C  C309  1  0.97534868  0.81330647  0.96557629  1
  C  C310  1  0.84558026  0.84943921  0.76575365  1
  H  H311  1  0.69340568  0.70382568  0.88423054  1
  C  C312  1  0.92900772  0.65835742  0.90584759  1
  H  H313  1  0.61712595  0.55141428  0.95766653  1
  C  C314  1  0.80641270  0.72127174  0.90660203  1
  C  C315  1  0.52676795  0.94785362  0.86037782  1
  C  C316  1  0.78582293  0.96676943  0.93344912  1
  H  H317  1  0.89972312  0.59715082  0.88574212  1
  H  H318  1  0.72798482  0.81416021  0.76490293  1
  H  H319  1  0.92533998  0.92926490  0.85975636  1
  N  N320  1  0.51298836  0.53700304  0.88137123  1
  H  H321  1  0.97878477  0.77166723  0.82466808  1
  C  C322  1  0.97963072  0.83034851  0.79735792  1
  H  H323  1  0.86133361  0.54797099  0.76570120  1
  C  C324  1  0.89256698  0.98370225  0.88882781  1
  C  C325  1  0.50617094  0.57109891  0.93292402  1
  H  H326  1  0.62659306  0.99508584  0.85263185  1
  H  H327  1  0.98061669  0.87838926  0.98557362  1
