# generated using pymatgen
data_ZnH14C23NO4
_symmetry_space_group_name_H-M   'P 1'
_cell_length_a   7.00360506
_cell_length_b   33.55177276
_cell_length_c   30.32213907
_cell_angle_alpha   90.00000000
_cell_angle_beta   90.00000000
_cell_angle_gamma   90.00000000
_symmetry_Int_Tables_number   1
_chemical_formula_structural   ZnH14C23NO4
_chemical_formula_sum   'Zn12 H168 C276 N12 O48'
_cell_volume   7125.19828121
_cell_formula_units_Z   12
loop_
 _symmetry_equiv_pos_site_id
 _symmetry_equiv_pos_as_xyz
  1  'x, y, z'
loop_
 _atom_site_type_symbol
 _atom_site_label
 _atom_site_symmetry_multiplicity
 _atom_site_fract_x
 _atom_site_fract_y
 _atom_site_fract_z
 _atom_site_occupancy
  C  C0  1  0.28841386  0.08871777  0.07667076  1
  C  C1  1  0.36933732  0.23498031  0.13127525  1
  C  C2  1  0.32475334  0.19676035  0.14979345  1
  C  C3  1  0.27246907  0.19359019  0.19550155  1
  H  H4  1  0.20499432  0.16537735  0.20666863  1
  C  C5  1  0.23889051  0.05145157  0.05403301  1
  C  C6  1  0.31387194  0.12425614  0.05115248  1
  C  C7  1  0.32524274  0.15997744  0.07369255  1
  H  H8  1  0.31416822  0.12399446  0.01485706  1
  O  O9  1  0.22043824  0.02085952  0.07629546  1
  C  C10  1  0.31299563  0.22607132  0.22385165  1
  C  C11  1  0.32358180  0.16033963  0.12118708  1
  O  O12  1  0.20489180  0.05304009  0.01286439  1
  C  C13  1  0.30137667  0.08795166  0.12333975  1
  H  H14  1  0.33424231  0.18698024  0.05428083  1
  C  C15  1  0.33007269  0.12390510  0.14540089  1
  H  H16  1  0.28091042  0.05859421  0.14125578  1
  H  H17  1  0.34544091  0.12617274  0.18075694  1
  H  H18  1  0.39848906  0.23893768  0.09461061  1
  C  C19  1  0.08284936  0.20901380  0.01265513  1
  H  H20  1  0.43964839  0.24533825  0.01076848  1
  C  C21  1  0.04485733  0.24963888  0.02158818  1
  C  C22  1  0.49464842  0.40663703  0.05685635  1
  C  C23  1  0.05492201  0.38861895  0.01513940  1
  C  C24  1  0.03953550  0.36801270  0.05787554  1
  H  H25  1  0.25898352  0.34036823  0.18256247  1
  C  C26  1  0.29123396  0.43512571  0.24107385  1
  C  C27  1  0.11967341  0.32971840  0.06101716  1
  H  H28  1  0.14608823  0.27683055  0.10295209  1
  H  H29  1  0.39939571  0.28806704  0.22717500  1
  H  H30  1  0.20357848  0.31741009  0.03422474  1
  C  C31  1  0.48523405  0.37091278  0.08729143  1
  C  C32  1  0.09101710  0.30704860  0.09847817  1
  H  H33  1  0.35064842  0.40278780  0.14035885  1
  C  C34  1  0.36372632  0.34094473  0.15656689  1
  C  C35  1  0.40289081  0.37373888  0.13025328  1
  O  O36  1  0.44369899  0.43950462  0.07026927  1
  C  C37  1  0.37088174  0.26324115  0.20629653  1
  C  C38  1  0.39703006  0.26617307  0.16040296  1
  C  C39  1  0.40074747  0.40101996  0.23746908  1
  C  C40  1  0.45249612  0.30528192  0.13857322  1
  Zn  Zn41  1  0.22254481  0.47445950  0.03204288  1
  H  H42  1  0.31879595  0.46052124  0.21777554  1
  H  H43  1  0.14855183  0.27273239  0.01087055  1
  C  C44  1  0.19335748  0.23069949  0.36215097  1
  C  C45  1  0.16931509  0.23268270  0.41154917  1
  H  H46  1  0.27063186  0.14476292  0.31084117  1
  C  C47  1  0.24909254  0.22855476  0.27199581  1
  C  C48  1  0.11273277  0.20062256  0.29138454  1
  O  O49  1  0.06895179  0.20683892  0.42946355  1
  C  C50  1  0.08982135  0.20264738  0.33684585  1
  C  C51  1  0.33386646  0.11790562  0.29823835  1
  C  C52  1  0.24203349  0.09269201  0.26819630  1
  C  C53  1  0.49742309  0.04972241  0.26873763  1
  H  H54  1  0.04180159  0.17665417  0.26977569  1
  N  N55  1  0.31425789  0.05802129  0.25714544  1
  H  H56  1  0.42314873  0.19290388  0.33109596  1
  H  H57  1  0.09289594  0.09620586  0.25866148  1
  N  N58  1  0.35054103  0.36513023  0.25333142  1
  C  C59  1  0.08182377  0.39695792  0.28824194  1
  Zn  Zn60  1  0.34293401  0.27903492  0.49619974  1
  C  C61  1  0.18813340  0.36250887  0.27756406  1
  O  O62  1  0.24230156  0.26134096  0.43297584  1
  H  H63  1  0.47024327  0.35501333  0.37139562  1
  C  C64  1  0.33867686  0.26000255  0.29643393  1
  H  H65  1  0.17259263  0.33132550  0.28941713  1
  C  C66  1  0.30514078  0.26069174  0.34183227  1
  H  H67  1  0.38552041  0.28203651  0.36319679  1
  C  C68  1  0.11800611  0.43314500  0.26611866  1
  H  H69  1  0.44688662  0.27853025  0.28111255  1
  H  H70  1  0.01961706  0.26492194  0.31821465  1
  C  C71  1  0.00165793  0.46959864  0.27455881  1
  O  O72  1  0.49554343  0.32265480  0.44827073  1
  H  H73  1  0.26421279  0.21308046  0.59748738  1
  C  C74  1  0.11048503  0.24739537  0.69678641  1
  C  C75  1  0.16389809  0.23708398  0.74286252  1
  H  H76  1  0.09304857  0.17287326  0.74179338  1
  H  H77  1  0.33987458  0.19571877  0.67737060  1
  O  O78  1  0.35341018  0.22108234  0.52277132  1
  C  C79  1  0.39253021  0.19592917  0.60823155  1
  C  C80  1  0.43343987  0.18574628  0.65185997  1
  C  C81  1  0.48773660  0.19603276  0.52754092  1
  C  C82  1  0.36248324  0.35233142  0.55646849  1
  C  C83  1  0.45934539  0.39835543  0.69473762  1
  H  H84  1  0.33760379  0.40406422  0.59948442  1
  O  O85  1  0.08241693  0.28697602  0.53848803  1
  C  C86  1  0.02960034  0.25973945  0.60869585  1
  N  N87  1  0.43412267  0.31749556  0.54576858  1
  H  H88  1  0.20738360  0.31387405  0.61328528  1
  C  C89  1  0.18530677  0.28079942  0.67464318  1
  H  H90  1  0.28295808  0.30246585  0.68997467  1
  C  C91  1  0.14558544  0.28756997  0.62977490  1
  H  H92  1  0.25045328  0.35492498  0.53234851  1
  H  H93  1  0.30381332  0.39863621  0.68532721  1
  C  C94  1  0.41415554  0.37564818  0.59324499  1
  C  C95  1  0.24037978  0.14941290  0.82330160  1
  C  C96  1  0.32186876  0.11751996  0.79771209  1
  C  C97  1  0.21970130  0.19174523  0.80393220  1
  C  C98  1  0.22159524  0.07295668  0.85281693  1
  C  C99  1  0.31650886  0.07872692  0.81140345  1
  C  C100  1  0.14036698  0.14139567  0.86207920  1
  C  C101  1  0.28167991  0.22075152  0.83246570  1
  C  C102  1  0.14042958  0.10317713  0.87862687  1
  C  C103  1  0.22376326  0.03319218  0.87126410  1
  C  C104  1  0.25127413  0.16491356  0.95554693  1
  C  C105  1  0.26136041  0.19788075  0.98352330  1
  O  O106  1  0.15757504  0.03082050  0.90989800  1
  H  H107  1  0.11686349  0.14868271  0.95072661  1
  H  H108  1  0.36713311  0.21251666  0.86352426  1
  C  C109  1  0.42761486  0.22101090  0.98754418  1
  O  O110  1  0.28398508  0.00476944  0.84789992  1
  H  H111  1  0.37490298  0.12611117  0.76471472  1
  H  H112  1  0.38269294  0.05478667  0.79224412  1
  C  C113  1  0.42117508  0.15829075  0.93113704  1
  H  H114  1  0.43807942  0.13389311  0.90544531  1
  Zn  Zn115  1  0.35474692  0.02326786  0.96524311  1
  C  C116  1  0.14869213  0.19802825  0.76066615  1
  H  H117  1  0.07349812  0.16722497  0.87965915  1
  H  H118  1  0.06350704  0.09753731  0.90972968  1
  H  H119  1  0.23090471  0.29903190  0.75609289  1
  C  C120  1  0.22961696  0.26785620  0.76982288  1
  C  C121  1  0.28918693  0.26074461  0.81419516  1
  O  O122  1  0.02579343  0.35738937  0.86956901  1
  C  C123  1  0.45266017  0.28880611  0.88778553  1
  Zn  Zn124  1  0.05915608  0.39683092  0.91961309  1
  H  H125  1  0.42681395  0.42397523  0.76200707  1
  C  C126  1  0.34612778  0.33073348  0.82204041  1
  H  H127  1  0.46989618  0.25999015  0.90579486  1
  C  C128  1  0.28777995  0.47491120  0.92498293  1
  O  O129  1  0.36396463  0.46650296  0.96099670  1
  O  O130  1  0.13035470  0.37054314  0.98325037  1
  H  H131  1  0.25582761  0.33160144  0.79093505  1
  H  H132  1  0.39714162  0.39576164  0.82516294  1
  C  C133  1  0.40671768  0.36623630  0.84189967  1
  O  O134  1  0.18251576  0.44990787  0.90440898  1
  C  C135  1  0.36943858  0.29276455  0.84415184  1
  C  C136  1  0.28999989  0.66709315  0.03557351  1
  C  C137  1  0.31134107  0.56266918  0.18459590  1
  C  C138  1  0.24546364  0.59275724  0.21290208  1
  C  C139  1  0.38339626  0.60160336  0.05686748  1
  C  C140  1  0.37364027  0.55574754  0.05658132  1
  C  C141  1  0.38175774  0.68043719  0.07567153  1
  N  N142  1  0.43537800  0.53430889  0.19150736  1
  C  C143  1  0.28572505  0.62669394  0.02702327  1
  H  H144  1  0.12344843  0.61202352  0.20342541  1
  C  C145  1  0.36735569  0.72422742  0.08509219  1
  H  H146  1  0.35121504  0.71139744  0.15826462  1
  C  C147  1  0.36093620  0.73388178  0.13156383  1
  O  O148  1  0.46081491  0.53845907  0.08575128  1
  C  C149  1  0.48624298  0.61279078  0.09346464  1
  H  H150  1  0.24051819  0.55266740  0.15418000  1
  H  H151  1  0.20681879  0.68913464  0.01630149  1
  O  O152  1  0.28195893  0.53774314  0.02621461  1
  H  H153  1  0.19110323  0.67727382  0.24352497  1
  H  H154  1  0.02519385  0.57729596  0.05463001  1
  H  H155  1  0.00988779  0.64676029  0.07780834  1
  C  C156  1  0.48964186  0.65505113  0.10303565  1
  H  H157  1  0.37129474  0.74727604  0.01624919  1
  C  C158  1  0.35657087  0.77454841  0.14348071  1
  C  C159  1  0.44764368  0.86359323  0.04966406  1
  C  C160  1  0.39840946  0.89887459  0.02827108  1
  C  C161  1  0.21620760  0.81304684  0.20752965  1
  H  H162  1  0.04077947  0.78179657  0.08370839  1
  H  H163  1  0.07787273  0.85794189  0.07487677  1
  C  C164  1  0.38725347  0.82553189  0.03176125  1
  C  C165  1  0.33718480  0.78014613  0.19390991  1
  C  C166  1  0.44218130  0.75874743  0.22529130  1
  H  H167  1  0.33017812  0.83756683  0.11742917  1
  C  C168  1  0.37846897  0.79326427  0.06614421  1
  H  H169  1  0.13628860  0.83185861  0.18388020  1
  H  H170  1  0.40818588  0.92853393  0.04082900  1
  C  C171  1  0.36374300  0.75365468  0.05181773  1
  C  C172  1  0.34471861  0.80555486  0.11043750  1
  C  C173  1  0.23530511  0.70109680  0.30806258  1
  C  C174  1  0.25161994  0.67215206  0.27462780  1
  O  O175  1  0.28218421  0.68231967  0.47055996  1
  C  C176  1  0.31330715  0.63293140  0.28308323  1
  N  N177  1  0.29759650  0.69506167  0.34861229  1
  H  H178  1  0.15896951  0.73190355  0.30349052  1
  C  C179  1  0.19195885  0.71242274  0.48152284  1
  C  C180  1  0.37357305  0.65895076  0.35824692  1
  C  C181  1  0.38472763  0.62823765  0.32688664  1
  Zn  Zn182  1  0.27336448  0.73588909  0.39434844  1
  H  H183  1  0.39609499  0.65939125  0.39536593  1
  O  O184  1  0.16063981  0.74087843  0.45572320  1
  H  H185  1  0.44229077  0.59946652  0.33830943  1
  C  C186  1  0.33842909  0.59583732  0.25523550  1
  H  H187  1  0.24631133  0.50771082  0.26081228  1
  H  H188  1  0.03630188  0.57282601  0.27938575  1
  C  C189  1  0.47090816  0.56452017  0.26399742  1
  C  C190  1  0.09443388  0.50712422  0.27095005  1
  C  C191  1  0.19310907  0.82187020  0.25238277  1
  C  C192  1  0.26947728  0.80981330  0.33275113  1
  H  H193  1  0.09950788  0.84665198  0.26415702  1
  O  O194  1  0.16366199  0.83634454  0.34505623  1
  C  C195  1  0.29431997  0.79926793  0.28390756  1
  O  O196  1  0.35762652  0.78856239  0.36010753  1
  C  C197  1  0.40922141  0.76867930  0.26977699  1
  H  H198  1  0.49921643  0.75360121  0.29449286  1
  C  C199  1  0.16606846  0.68576812  0.55826455  1
  H  H200  1  0.23123960  0.65689629  0.54667889  1
  H  H201  1  0.19097862  0.61610827  0.69939242  1
  C  C202  1  0.12856137  0.68671854  0.60331176  1
  C  C203  1  0.12440369  0.71718177  0.52919279  1
  H  H204  1  0.16490823  0.66073855  0.62322062  1
  C  C205  1  0.08956806  0.60533076  0.72558744  1
  H  H206  1  0.34559751  0.70989880  0.70448550  1
  H  H207  1  0.12551702  0.54224106  0.71429890  1
  C  C208  1  0.43811772  0.68585959  0.69055813  1
  C  C209  1  0.48581530  0.68191970  0.64579996  1
  C  C210  1  0.03964267  0.72196389  0.62103489  1
  C  C211  1  0.05179141  0.56528542  0.73304786  1
  H  H212  1  0.42983567  0.70305613  0.62103973  1
  C  C213  1  0.01053649  0.74718533  0.74407684  1
  C  C214  1  0.02125513  0.71993340  0.67044595  1
  C  C215  1  0.03438508  0.75061641  0.54793599  1
  H  H216  1  0.00913309  0.77678757  0.52690011  1
  C  C217  1  0.01280927  0.75420557  0.69694652  1
  H  H218  1  0.31976566  0.80058744  0.73179375  1
  H  H219  1  0.02474842  0.78419642  0.68199832  1
  C  C220  1  0.31921063  0.51388500  0.90629878  1
  C  C221  1  0.26145840  0.55700180  0.84403074  1
  C  C222  1  0.37858841  0.58765393  0.86441424  1
  C  C223  1  0.43147197  0.54342248  0.92568110  1
  H  H224  1  0.12220036  0.70033624  0.89186011  1
  C  C225  1  0.41514761  0.62554001  0.84056185  1
  C  C226  1  0.43157727  0.62128010  0.79360345  1
  H  H227  1  0.41634382  0.59189714  0.77673973  1
  H  H228  1  0.18937101  0.56030732  0.81281456  1
  C  C229  1  0.22714714  0.52189774  0.86612785  1
  C  C230  1  0.45885895  0.58044259  0.90627461  1
  H  H231  1  0.49855133  0.53686586  0.95819448  1
  C  C232  1  0.44889011  0.66172718  0.86274185  1
  H  H233  1  0.08618495  0.62776167  0.90219213  1
  C  C234  1  0.46772926  0.65730281  0.76998250  1
  H  H235  1  0.45559070  0.66290454  0.90030774  1
  C  C236  1  0.45378190  0.69820128  0.83786904  1
  C  C237  1  0.48055023  0.69569432  0.79120286  1
  H  H238  1  0.19770432  0.61658617  0.99876140  1
  C  C239  1  0.05438891  0.68753305  0.92069114  1
  C  C240  1  0.02059999  0.64640092  0.92682133  1
  H  H241  1  0.01517676  0.70419923  0.79707851  1
  C  C242  1  0.46010550  0.73969114  0.85880027  1
  H  H243  1  0.13826908  0.50043225  0.84850191  1
  C  C244  1  0.19605660  0.81188505  0.75077479  1
  C  C245  1  0.32328037  0.82325016  0.98725237  1
  H  H246  1  0.28204106  0.79394962  0.97295886  1
  C  C247  1  0.05994230  0.86555874  0.79648802  1
  C  C248  1  0.07913880  0.90722671  0.81072858  1
  C  C249  1  0.03218153  0.78911985  0.76318420  1
  C  C250  1  0.25722618  0.93377789  0.96371134  1
  H  H251  1  0.32271933  0.86762384  0.76043498  1
  O  O252  1  0.22385366  0.92828519  0.80665471  1
  H  H253  1  0.33726073  0.83326323  0.82943460  1
  C  C254  1  0.20321431  0.84939328  0.76839517  1
  H  H255  1  0.25866898  0.76696339  0.81155613  1
  Zn  Zn256  1  0.40109799  0.94921871  0.86426234  1
  O  O257  1  0.48679517  0.88613803  0.86562386  1
  H  H258  1  0.24528465  0.86143828  0.93168025  1
  O  O259  1  0.18680825  0.93494570  0.92378014  1
  C  C260  1  0.30228428  0.85959210  0.96402697  1
  O  O261  1  0.26337653  0.96558541  0.98500541  1
  C  C262  1  0.41091467  0.81020883  0.85010565  1
  C  C263  1  0.36487338  0.77193275  0.83734517  1
  C  C264  1  0.32383744  0.89617484  0.98494906  1
  C  C265  1  0.82580087  0.19186734  0.19167905  1
  C  C266  1  0.83315647  0.10905050  0.17430218  1
  C  C267  1  0.75271856  0.12347732  0.21317182  1
  C  C268  1  0.74128522  0.16435853  0.22221424  1
  H  H269  1  0.71662378  0.17881765  0.08176362  1
  C  C270  1  0.81703474  0.19687715  0.06178131  1
  C  C271  1  0.83949490  0.23575702  0.20073786  1
  H  H272  1  0.67575059  0.10121291  0.23383039  1
  O  O273  1  0.77161439  0.03871934  0.18647003  1
  C  C274  1  0.85052112  0.06401523  0.16217191  1
  C  C275  1  0.90564551  0.17655256  0.15307035  1
  C  C276  1  0.90913642  0.13576407  0.14331450  1
  O  O277  1  0.93276252  0.05434557  0.12645683  1
  C  C278  1  0.95484128  0.18245113  0.03236096  1
  H  H279  1  0.96830824  0.19843513  0.12749247  1
  N  N280  1  0.76874803  0.23466913  0.06711107  1
  H  H281  1  0.98651485  0.14989802  0.02882550  1
  H  H282  1  0.97023841  0.12382072  0.11334054  1
  H  H283  1  0.93115715  0.24412993  0.13290215  1
  C  C284  1  0.80641421  0.25128518  0.24362023  1
  H  H285  1  0.53697852  0.39849106  0.21849492  1
  H  H286  1  0.64833278  0.33644990  0.03995182  1
  O  O287  1  0.86047036  0.48354242  0.13002095  1
  C  C288  1  0.91269056  0.25852283  0.16471929  1
  C  C289  1  0.98615922  0.32524828  0.13364943  1
  H  H290  1  0.81778878  0.37619007  0.15511634  1
  C  C291  1  0.56953996  0.33557915  0.07126990  1
  C  C292  1  0.91304619  0.36559650  0.13015378  1
  H  H293  1  0.91945131  0.34993643  0.22140539  1
  H  H294  1  0.89639346  0.41887638  0.08955591  1
  C  C295  1  0.94403080  0.38748242  0.09282084  1
  O  O296  1  0.57435953  0.40258331  0.01993168  1
  C  C297  1  0.88784244  0.26045412  0.04780272  1
  C  C298  1  0.89931132  0.31814847  0.21558220  1
  C  C299  1  0.55526354  0.30197613  0.09839884  1
  C  C300  1  0.94340557  0.29920300  0.17328681  1
  H  H301  1  0.62307093  0.27391046  0.08935261  1
  H  H302  1  0.82783291  0.29138529  0.05196965  1
  O  O303  1  0.99689614  0.42497472  0.01248134  1
  C  C304  1  0.73054195  0.12543898  0.37804488  1
  H  H305  1  0.74921192  0.06189674  0.31055566  1
  C  C306  1  0.61464954  0.20426358  0.38106547  1
  H  H307  1  0.56099681  0.23306805  0.38946929  1
  C  C308  1  0.59934389  0.13815113  0.34455780  1
  H  H309  1  0.79141257  0.09442686  0.37925570  1
  N  N310  1  0.72234292  0.18936627  0.41370868  1
  C  C311  1  0.78353720  0.15229258  0.41103794  1
  Zn  Zn312  1  0.81017616  0.22388605  0.46621492  1
  C  C313  1  0.53999825  0.17922150  0.34851878  1
  H  H314  1  0.78608242  0.22922106  0.26889927  1
  H  H315  1  0.87668365  0.14610863  0.43910278  1
  C  C316  1  0.60506657  0.07084434  0.30072657  1
  H  H317  1  0.64654266  0.17457044  0.25039392  1
  C  C318  1  0.52016710  0.10732845  0.31400797  1
  O  O319  1  0.59564886  0.18597608  0.49738301  1
  H  H320  1  0.99874455  0.18224846  0.35777015  1
  H  H321  1  0.51580128  0.02186211  0.25035019  1
  H  H322  1  0.93387126  0.26953430  0.39732490  1
  C  C323  1  0.90151041  0.28584040  0.33004226  1
  C  C324  1  0.64670913  0.30659573  0.43578056  1
  C  C325  1  0.59698960  0.33615147  0.35918303  1
  C  C326  1  0.79022371  0.30785080  0.29850379  1
  H  H327  1  0.57744957  0.35550886  0.28875424  1
  C  C328  1  0.82167092  0.46870117  0.29719950  1
  H  H329  1  0.73775690  0.44023799  0.30170390  1
  C  C330  1  0.69145861  0.30894377  0.38673913  1
  C  C331  1  0.84727649  0.28518906  0.37434029  1
  H  H332  1  0.96516634  0.39436722  0.31065515  1
  O  O333  1  0.75418514  0.28841757  0.46212940  1
  C  C334  1  0.64772714  0.33525258  0.31431340  1
  C  C335  1  0.82610048  0.29402370  0.25024564  1
  C  C336  1  0.63886588  0.19779558  0.73116923  1
  C  C337  1  0.73093031  0.15198498  0.63015107  1
  C  C338  1  0.65678089  0.16001547  0.71178851  1
  C  C339  1  0.68734355  0.16275691  0.58666368  1
  H  H340  1  0.70798887  0.09593902  0.71698369  1
  C  C341  1  0.59697908  0.16364857  0.66352505  1
  H  H342  1  0.57859352  0.22382800  0.71292276  1
  H  H343  1  0.78760398  0.15347441  0.56062865  1
  H  H344  1  0.83303084  0.20934541  0.61190514  1
  C  C345  1  0.51243538  0.18202517  0.57511183  1
  H  H346  1  0.86952557  0.13662378  0.63934884  1
  H  H347  1  0.92542982  0.19532104  0.69329127  1
  O  O348  1  0.88951168  0.23644608  0.54033806  1
  C  C349  1  0.72313980  0.12475522  0.73372000  1
  C  C350  1  0.98098949  0.21981715  0.67431538  1
  C  C351  1  0.94226755  0.22635739  0.62953182  1
  H  H352  1  0.74003242  0.30887772  0.63049676  1
  H  H353  1  0.97773124  0.40498253  0.73599665  1
  H  H354  1  0.63441036  0.27489843  0.56073645  1
  C  C355  1  0.79617143  0.38715951  0.67862595  1
  C  C356  1  0.83596410  0.40447975  0.71991097  1
  C  C357  1  0.54341089  0.36046660  0.62425692  1
  C  C358  1  0.56969834  0.30312544  0.57212993  1
  H  H359  1  0.91413380  0.37660292  0.65737115  1
  H  H360  1  0.66538246  0.27349101  0.72660026  1
  C  C361  1  0.51989918  0.41115188  0.73613032  1
  C  C362  1  0.62660917  0.32345310  0.61088011  1
  C  C363  1  0.60063516  0.38265853  0.66502128  1
  C  C364  1  0.99422376  0.26072379  0.55997430  1
  N  N365  1  0.70290171  0.41461757  0.74769200  1
  C  C366  1  0.77677599  0.16805163  0.79689718  1
  C  C367  1  0.76712507  0.12969364  0.77884276  1
  C  C368  1  0.71445762  0.20278305  0.77445948  1
  C  C369  1  0.76520961  0.09700399  0.81292878  1
  C  C370  1  0.80979240  0.05733917  0.80001036  1
  C  C371  1  0.69969507  0.10785692  0.85545304  1
  H  H372  1  0.82634638  0.16944256  0.83185630  1
  C  C373  1  0.68564005  0.07853107  0.88673688  1
  C  C374  1  0.77895497  0.02806771  0.83178326  1
  C  C375  1  0.71953169  0.03859988  0.87374466  1
  H  H376  1  0.66862807  0.13890967  0.86491564  1
  H  H377  1  0.64128941  0.08372282  0.92036156  1
  O  O378  1  0.64574637  0.01241166  0.94647954  1
  C  C379  1  0.67756145  0.00652045  0.90635478  1
  H  H380  1  0.85662367  0.05067422  0.76571874  1
  H  H381  1  0.73814402  0.21828797  0.96060362  1
  C  C382  1  0.74530509  0.24415836  0.79085496  1
  N  N383  1  0.58086382  0.17955279  0.93222256  1
  C  C384  1  0.58486589  0.21022392  0.96061943  1
  H  H385  1  0.82926413  0.22198868  0.85838866  1
  C  C386  1  0.82187971  0.24801851  0.83550454  1
  O  O387  1  0.98983817  0.48466171  0.75383882  1
  C  C388  1  0.87750441  0.28539603  0.84785252  1
  C  C389  1  0.51438916  0.36265288  0.88154433  1
  Zn  Zn390  1  0.71123568  0.44535445  0.98193004  1
  O  O391  1  0.82260987  0.49909132  0.81052558  1
  H  H392  1  0.56782905  0.32637866  0.93923314  1
  H  H393  1  0.76476591  0.34219258  0.75520576  1
  Zn  Zn394  1  0.74769422  0.43386932  0.81119512  1
  C  C395  1  0.51380267  0.32550293  0.90468812  1
  O  O396  1  0.61072934  0.43015995  0.87053857  1
  C  C397  1  0.86089160  0.31576566  0.81610496  1
  O  O398  1  0.73141912  0.39992863  0.92823512  1
  C  C399  1  0.72693056  0.27638605  0.75932590  1
  C  C400  1  0.62076375  0.39911462  0.89426424  1
  C  C401  1  0.77965158  0.31430160  0.77404357  1
  C  C402  1  0.94999641  0.35488426  0.83098195  1
  H  H403  1  0.85802097  0.48943732  0.90949387  1
  O  O404  1  0.95289524  0.38449737  0.80785492  1
  H  H405  1  0.95465540  0.29221306  0.87911914  1
  C  C406  1  0.80812650  0.56252766  0.15564868  1
  C  C407  1  0.78264153  0.60191603  0.16767830  1
  C  C408  1  0.86875299  0.63314674  0.14057503  1
  C  C409  1  0.90207336  0.55436541  0.11582038  1
  C  C410  1  0.92074734  0.50940431  0.10632742  1
  C  C411  1  0.87282243  0.67688952  0.15565039  1
  C  C412  1  0.86109282  0.71364576  0.13098406  1
  H  H413  1  0.83438764  0.64752841  0.22060640  1
  C  C414  1  0.85515905  0.67501753  0.20328650  1
  H  H415  1  0.84086285  0.71416798  0.09335311  1
  H  H416  1  0.73901989  0.58699526  0.02850050  1
  C  C417  1  0.86543128  0.71180105  0.22716275  1
  H  H418  1  0.74656881  0.53926891  0.17668026  1
  H  H419  1  0.70880995  0.61105154  0.19530661  1
  H  H420  1  0.67678552  0.51482071  0.03523037  1
  H  H421  1  0.58629786  0.66500849  0.12758262  1
  H  H422  1  0.54159540  0.73509615  0.21485877  1
  H  H423  1  0.56124889  0.59133774  0.11632816  1
  O  O424  1  0.98325246  0.50037149  0.06699351  1
  C  C425  1  0.94644918  0.62515568  0.09830811  1
  C  C426  1  0.96253771  0.58460691  0.08745839  1
  C  C427  1  0.85074228  0.74971113  0.15683614  1
  C  C428  1  0.77981431  0.56911808  0.00044774  1
  H  H429  1  0.70088464  0.64747079  0.01020892  1
  C  C430  1  0.73649717  0.52785322  0.00392826  1
  C  C431  1  0.85986089  0.74812197  0.20439102  1
  H  H432  1  0.60888662  0.50866525  0.23396607  1
  C  C433  1  0.51443512  0.53576568  0.23141863  1
  C  C434  1  0.72891566  0.81937476  0.16465329  1
  O  O435  1  0.77691539  0.94381768  0.13859872  1
  C  C436  1  0.73013939  0.86018212  0.15768839  1
  H  H437  1  0.66263898  0.80392344  0.19329383  1
  H  H438  1  0.86250370  0.77718984  0.22109406  1
  C  C439  1  0.83907455  0.79147338  0.13850899  1
  C  C440  1  0.97965056  0.84720884  0.09999242  1
  H  H441  1  0.65007866  0.88172685  0.17829496  1
  C  C442  1  0.87867931  0.91773014  0.12130686  1
  C  C443  1  0.86343610  0.87346854  0.12538263  1
  C  C444  1  0.96386111  0.80556661  0.10412236  1
  H  H445  1  0.51818046  0.86478610  0.08331006  1
  O  O446  1  0.98922295  0.93201504  0.09304975  1
  Zn  Zn447  1  0.97691323  0.99615942  0.10658301  1
  C  C448  1  0.72187442  0.70291807  0.41327020  1
  C  C449  1  0.77500217  0.70886715  0.36604707  1
  O  O450  1  0.71300315  0.66736871  0.43109137  1
  C  C451  1  0.82988367  0.71120891  0.27832239  1
  C  C452  1  0.80734327  0.67234754  0.29866348  1
  C  C453  1  0.78837909  0.67147629  0.34471720  1
  O  O454  1  0.68771458  0.73109454  0.43656465  1
  H  H455  1  0.77625660  0.64358212  0.36207446  1
  H  H456  1  0.80399607  0.64588105  0.27736555  1
  N  N457  1  0.82781854  0.54051467  0.30104422  1
  C  C458  1  0.80382204  0.74716632  0.34595385  1
  H  H459  1  0.60920498  0.50685582  0.32944208  1
  C  C460  1  0.74192474  0.50535996  0.31130588  1
  Zn  Zn461  1  0.58930018  0.67847012  0.49507696  1
  C  C462  1  0.83570326  0.74832613  0.30065839  1
  C  C463  1  0.99108483  0.54197376  0.27791542  1
  H  H464  1  0.55494961  0.56707648  0.29427097  1
  H  H465  1  0.87724422  0.77826087  0.28441832  1
  H  H466  1  0.80827485  0.77445434  0.36532989  1
  O  O467  1  0.67271040  0.61935510  0.56202672  1
  C  C468  1  0.61568628  0.64866277  0.58278478  1
  C  C469  1  0.67342620  0.62005921  0.66177175  1
  H  H470  1  0.73987595  0.59370482  0.64847498  1
  H  H471  1  0.69122517  0.60500181  0.73256865  1
  C  C472  1  0.98318962  0.67566798  0.73265391  1
  O  O473  1  0.55177241  0.67826416  0.56051963  1
  C  C474  1  0.59212250  0.64870294  0.63300258  1
  C  C475  1  0.62926213  0.62351702  0.70702574  1
  H  H476  1  0.96569484  0.65583241  0.66348084  1
  C  C477  1  0.99632992  0.67973500  0.68627196  1
  C  C478  1  0.51543075  0.65697111  0.72067601  1
  H  H479  1  0.90360306  0.77995027  0.60467584  1
  C  C480  1  0.98538307  0.75304442  0.59222041  1
  C  C481  1  0.84637411  0.58494460  0.96069351  1
  C  C482  1  0.85396941  0.58019515  0.79858397  1
  H  H483  1  0.67984590  0.72372803  0.90629466  1
  C  C484  1  0.83878995  0.51516493  0.93407619  1
  C  C485  1  0.90255604  0.62860191  0.95943698  1
  H  H486  1  0.76554787  0.57101047  0.82687885  1
  H  H487  1  0.76304656  0.64391790  0.80411339  1
  C  C488  1  0.87580701  0.55580753  0.92616010  1
  C  C489  1  0.86153191  0.62116503  0.78721993  1
  N  N490  1  0.76941710  0.50171022  0.97246764  1
  H  H491  1  0.92009304  0.56741334  0.89432575  1
  C  C492  1  0.91232162  0.50913984  0.77630949  1
  C  C493  1  0.93628928  0.55374398  0.76815096  1
  C  C494  1  0.97293941  0.63317248  0.75036047  1
  C  C495  1  0.99545479  0.70877800  0.76235881  1
  C  C496  1  0.81140735  0.65771354  0.98564147  1
  C  C497  1  0.86469847  0.69851767  0.98103333  1
  H  H498  1  0.55318063  0.60237143  0.92217903  1
  H  H499  1  0.81724202  0.72546611  0.99948061  1
  C  C500  1  0.60662176  0.74854319  0.89183939  1
  H  H501  1  0.51275020  0.72238019  0.77111478  1
  N  N502  1  0.98365308  0.71245763  0.95036230  1
  C  C503  1  0.64993715  0.78776988  0.90113369  1
  C  C504  1  0.59878000  0.86344576  0.88425291  1
  O  O505  1  0.74530411  0.87226633  0.90663223  1
  H  H506  1  0.75144551  0.79471412  0.92679683  1
  O  O507  1  0.93449306  0.92131492  0.83091687  1
  H  H508  1  0.78163008  0.85670225  0.82172716  1
  O  O509  1  0.67429370  0.97098079  0.89031442  1
  C  C510  1  0.55168785  0.81994222  0.88116771  1
  H  H511  1  0.74532958  0.78782545  0.79815748  1
  C  C512  1  0.87095246  0.80477042  0.78732481  1
  C  C513  1  0.89443962  0.84376327  0.80374126  1
  H  H514  1  0.80124620  0.99618664  0.82225210  1
  Zn  Zn515  1  0.90723357  0.92793913  0.89835408  1
