# generated using pymatgen
data_Zn2H14(C3O)9
_symmetry_space_group_name_H-M   'P 1'
_cell_length_a   11.45453859
_cell_length_b   22.02778092
_cell_length_c   22.18155622
_cell_angle_alpha   90.00000000
_cell_angle_beta   90.00000000
_cell_angle_gamma   90.00000000
_symmetry_Int_Tables_number   1
_chemical_formula_structural   Zn2H14(C3O)9
_chemical_formula_sum   'Zn16 H112 C216 O72'
_cell_volume   5596.80738107
_cell_formula_units_Z   8
loop_
 _symmetry_equiv_pos_site_id
 _symmetry_equiv_pos_as_xyz
  1  'x, y, z'
loop_
 _atom_site_type_symbol
 _atom_site_label
 _atom_site_symmetry_multiplicity
 _atom_site_fract_x
 _atom_site_fract_y
 _atom_site_fract_z
 _atom_site_occupancy
  H  H0  1  0.07032828  0.13266048  0.00226161  1
  O  O1  1  0.17036850  0.17295298  0.38471450  1
  Zn  Zn2  1  0.36084915  0.05198052  0.48092537  1
  O  O3  1  0.28029616  0.09578919  0.40537772  1
  C  C4  1  0.17804732  0.11634980  0.39602454  1
  C  C5  1  0.11278633  0.01515332  0.41721306  1
  H  H6  1  0.42522704  0.17394989  0.05102374  1
  C  C7  1  0.47460498  0.15427482  0.00941882  1
  C  C8  1  0.08019484  0.07449844  0.40559866  1
  Zn  Zn9  1  0.03396538  0.23141142  0.40929992  1
  O  O10  1  0.14011715  0.21069729  0.21642925  1
  H  H11  1  0.35132631  0.22481532  0.39735112  1
  H  H12  1  0.20224448  0.00075199  0.42398756  1
  H  H13  1  0.14573151  0.00390517  0.28622219  1
  H  H14  1  0.00300813  0.00932159  0.32168161  1
  O  O15  1  0.32017960  0.01030128  0.30656680  1
  C  C16  1  0.41934921  0.22326658  0.85627881  1
  C  C17  1  0.21387516  0.06177106  0.62186328  1
  C  C18  1  0.12775266  0.00160287  0.83160380  1
  C  C19  1  0.08198767  0.17518563  0.91673895  1
  H  H20  1  0.25591144  0.13671792  0.91077069  1
  H  H21  1  0.09173711  0.17911077  0.54309209  1
  C  C22  1  0.21005058  0.11128954  0.57753012  1
  C  C23  1  0.10621663  0.14826812  0.57937337  1
  O  O24  1  0.29255568  0.12182836  0.54160007  1
  C  C25  1  0.09882247  0.16945183  0.85400943  1
  C  C26  1  0.11909557  0.06149698  0.86289956  1
  C  C27  1  0.11883544  0.23050360  0.82234673  1
  C  C28  1  0.38177285  0.06017627  0.88637597  1
  C  C29  1  0.35300357  0.12293914  0.91506635  1
  C  C30  1  0.43467343  0.16342105  0.94675575  1
  C  C31  1  0.02472096  0.14120275  0.62473556  1
  H  H32  1  0.14096357  0.17865282  0.73860500  1
  C  C33  1  0.12489857  0.22354126  0.75793183  1
  C  C34  1  0.03549210  0.09580688  0.66939611  1
  H  H35  1  0.42075946  0.05642630  0.57981062  1
  H  H36  1  0.44886056  0.16830453  0.74384403  1
  H  H37  1  0.30636078  0.04327025  0.85449148  1
  C  C38  1  0.11442437  0.11219387  0.82597810  1
  C  C39  1  0.12916227  0.05618879  0.66726996  1
  C  C40  1  0.42764960  0.22611020  0.92022897  1
  C  C41  1  0.10781583  0.06420980  0.93020042  1
  C  C42  1  0.08512324  0.12526813  0.95391768  1
  H  H43  1  0.06956130  0.22021397  0.93618595  1
  H  H44  1  0.12483547  0.10723047  0.77648623  1
  O  O45  1  0.11652110  0.01723368  0.96148984  1
  H  H46  1  0.41311208  0.17830041  0.83564922  1
  C  C47  1  0.45586620  0.21476663  0.72256411  1
  C  C48  1  0.49802133  0.21418640  0.66531973  1
  H  H49  1  0.14490602  0.02080959  0.70491813  1
  O  O50  1  0.39430777  0.01774694  0.57017313  1
  Zn  Zn51  1  0.49229544  0.07678886  0.95731513  1
  C  C52  1  0.29466020  0.01158193  0.62258420  1
  O  O53  1  0.49684235  0.10716709  0.68077688  1
  C  C54  1  0.48368777  0.02013757  0.88807836  1
  C  C55  1  0.40593281  0.45663635  0.03051415  1
  C  C56  1  0.35019391  0.42582698  0.45639054  1
  H  H57  1  0.23021556  0.29345365  0.29871539  1
  C  C58  1  0.27624337  0.40097680  0.35846135  1
  H  H59  1  0.47706598  0.46399628  0.29056235  1
  C  C60  1  0.38853645  0.38353704  0.33942409  1
  C  C61  1  0.18074037  0.38834085  0.31101884  1
  C  C62  1  0.08543594  0.25629458  0.21881139  1
  C  C63  1  0.16938214  0.33069436  0.28603709  1
  H  H64  1  0.15831356  0.43161064  0.42817851  1
  C  C65  1  0.46721009  0.43741716  0.16501055  1
  C  C66  1  0.48948946  0.39352730  0.37600931  1
  C  C67  1  0.25136293  0.42125911  0.41653532  1
  C  C68  1  0.11020321  0.43867676  0.29093640  1
  C  C69  1  0.41282778  0.33222014  0.15559764  1
  C  C70  1  0.08137366  0.31697169  0.24385028  1
  H  H71  1  0.40622203  0.36360293  0.29534568  1
  H  H72  1  0.32005115  0.39827915  0.21260335  1
  H  H73  1  0.34006547  0.36383272  0.02665329  1
  O  O74  1  0.15416315  0.28179064  0.46315279  1
  C  C75  1  0.38992038  0.38846985  0.18056909  1
  H  H76  1  0.36333158  0.29101295  0.16965733  1
  C  C77  1  0.02823644  0.42292868  0.24707754  1
  H  H78  1  0.37425573  0.29156597  0.40899694  1
  H  H79  1  0.36691497  0.46656616  0.07425740  1
  H  H80  1  0.20709908  0.49752450  0.32459533  1
  C  C81  1  0.46325883  0.40871449  0.43618326  1
  O  O82  1  0.12444496  0.49712496  0.30906256  1
  C  C83  1  0.38329053  0.40243024  0.00233616  1
  H  H84  1  0.45127056  0.28644016  0.00058189  1
  C  C85  1  0.44875868  0.49869015  0.19411792  1
  O  O86  1  0.41581409  0.25345155  0.39950275  1
  C  C87  1  0.14922303  0.28489765  0.51939556  1
  C  C88  1  0.21995540  0.43925111  0.61378601  1
  C  C89  1  0.46651841  0.44627773  0.90708931  1
  O  O90  1  0.30439306  0.45586762  0.70782027  1
  H  H91  1  0.08740169  0.29367091  0.89266980  1
  C  C92  1  0.42318026  0.33406439  0.84828643  1
  C  C93  1  0.46541596  0.32482435  0.71927920  1
  C  C94  1  0.12715977  0.41092733  0.82289391  1
  C  C95  1  0.41743352  0.27522528  0.81922341  1
  C  C96  1  0.31579148  0.45209311  0.65368130  1
  C  C97  1  0.10227537  0.29216224  0.84264907  1
  C  C98  1  0.14324564  0.27464981  0.64796192  1
  C  C99  1  0.42862631  0.45779184  0.62082513  1
  H  H100  1  0.13308400  0.43410318  0.63463465  1
  C  C101  1  0.43718777  0.44910215  0.55987748  1
  C  C102  1  0.03938202  0.27835215  0.55390007  1
  C  C103  1  0.42157432  0.33597072  0.91165644  1
  H  H104  1  0.42224148  0.37659342  0.82282094  1
  C  C105  1  0.43141727  0.28311586  0.95007289  1
  C  C106  1  0.42160164  0.39868643  0.94170505  1
  C  C107  1  0.19185136  0.43057190  0.87352506  1
  C  C108  1  0.13392165  0.33376982  0.74304061  1
  C  C109  1  0.23025766  0.43670673  0.55295173  1
  H  H110  1  0.22738093  0.39620831  0.90233846  1
  C  C111  1  0.08798138  0.45620441  0.78210339  1
  C  C112  1  0.11585597  0.34283154  0.80503210  1
  H  H113  1  0.16490850  0.37388993  0.71595487  1
  C  C114  1  0.33734540  0.44005102  0.52271243  1
  H  H115  1  0.49056539  0.44023280  0.86033920  1
  H  H116  1  0.03576914  0.44811480  0.74192472  1
  C  C117  1  0.25444809  0.28029887  0.61850255  1
  C  C118  1  0.13081916  0.27298865  0.71862900  1
  H  H119  1  0.44838784  0.36840968  0.74017545  1
  H  H120  1  0.33997122  0.28983915  0.53513362  1
  C  C121  1  0.25530395  0.28402377  0.55516093  1
  C  C122  1  0.44317332  0.27119822  0.75387089  1
  H  H123  1  0.14664954  0.42747527  0.52576536  1
  H  H124  1  0.33681663  0.28468123  0.64310014  1
  C  C125  1  0.03689789  0.27311365  0.61493696  1
  H  H126  1  0.27718994  0.49871169  0.92068811  1
  C  C127  1  0.21338295  0.49265989  0.88469251  1
  C  C128  1  0.49151545  0.70065561  0.12447358  1
  H  H129  1  0.47722798  0.55505021  0.11262399  1
  C  C130  1  0.32808784  0.73413439  0.40648037  1
  C  C131  1  0.26806640  0.59978677  0.36240745  1
  C  C132  1  0.41491623  0.57300090  0.45963571  1
  C  C133  1  0.42021609  0.61013382  0.18719853  1
  C  C134  1  0.39339439  0.61208605  0.24946416  1
  H  H135  1  0.29719888  0.70865769  0.44501324  1
  H  H136  1  0.20787876  0.60748409  0.32525518  1
  H  H137  1  0.13738630  0.62725010  0.42243261  1
  C  C138  1  0.49419994  0.74058611  0.06569445  1
  C  C139  1  0.39320743  0.67107424  0.15562395  1
  C  C140  1  0.27617700  0.69133976  0.17139495  1
  C  C141  1  0.23110564  0.61473547  0.42038181  1
  H  H142  1  0.21520374  0.65372841  0.18245586  1
  C  C143  1  0.30293451  0.60373592  0.47405887  1
  C  C144  1  0.37651170  0.57071119  0.35083238  1
  C  C145  1  0.41389900  0.70893712  0.37060848  1
  H  H146  1  0.38079776  0.65521921  0.27160011  1
  C  C147  1  0.41048896  0.55766982  0.28464612  1
  C  C148  1  0.46250826  0.73722116  0.31767790  1
  O  O149  1  0.08506725  0.68220128  0.32437861  1
  C  C150  1  0.44891954  0.55498161  0.40034376  1
  C  C151  1  0.45652873  0.71684905  0.00505942  1
  C  C152  1  0.45776657  0.55416786  0.16065940  1
  O  O153  1  0.23880193  0.69133084  0.00781467  1
  H  H154  1  0.44832088  0.66263379  0.37873478  1
  H  H155  1  0.00546062  0.64034431  0.10279808  1
  H  H156  1  0.12117617  0.66069301  0.08618248  1
  O  O157  1  0.08223558  0.64776342  0.12058077  1
  H  H158  1  0.15800515  0.74313674  0.48478034  1
  C  C159  1  0.45073242  0.50226025  0.25966163  1
  C  C160  1  0.17561119  0.54127761  0.84819805  1
  C  C161  1  0.40344715  0.70310045  0.69635206  1
  C  C162  1  0.41244044  0.63712563  0.70896718  1
  O  O163  1  0.19555874  0.59600890  0.85736789  1
  Zn  Zn164  1  0.40384814  0.68393817  0.90285942  1
  C  C165  1  0.33752556  0.69292397  0.99360899  1
  Zn  Zn166  1  0.13988137  0.63733579  0.76663285  1
  O  O167  1  0.23281050  0.72754268  0.75541441  1
  Zn  Zn168  1  0.42125687  0.52150360  0.76308186  1
  C  C169  1  0.06719972  0.55622272  0.74098736  1
  O  O170  1  0.33026420  0.60486303  0.73492599  1
  C  C171  1  0.30648899  0.74241747  0.71704891  1
  C  C172  1  0.11140776  0.51817103  0.79105735  1
  O  O173  1  0.28137420  0.62267646  0.52343782  1
  O  O174  1  0.01258887  0.54813810  0.69557725  1
  C  C175  1  0.48721366  0.72391204  0.65912379  1
  C  C176  1  0.46184867  0.50855080  0.99961622  1
  C  C177  1  0.48552991  0.50182717  0.93509834  1
  H  H178  1  0.00570577  0.69303628  0.50323715  1
  C  C179  1  0.18414220  0.82228100  0.42318803  1
  C  C180  1  0.28245990  0.79460874  0.39079007  1
  C  C181  1  0.14639361  0.88393094  0.40901387  1
  C  C182  1  0.41676317  0.79791599  0.30858579  1
  C  C183  1  0.02207837  0.97254236  0.42952126  1
  C  C184  1  0.05946611  0.90745086  0.44668321  1
  C  C185  1  0.43941999  0.92575572  0.41344309  1
  H  H186  1  0.18677297  0.91342687  0.37456599  1
  C  C187  1  0.03057627  0.92935158  0.26142604  1
  H  H188  1  0.20694706  0.92192923  0.22137965  1
  O  O189  1  0.36204587  0.95940643  0.43268100  1
  C  C190  1  0.20241121  0.80943209  0.16815793  1
  C  C191  1  0.33724631  0.82807592  0.34431127  1
  C  C192  1  0.45288525  0.83065786  0.25220171  1
  C  C193  1  0.23776570  0.83576869  0.11209987  1
  O  O194  1  0.40804340  0.87896502  0.23944531  1
  O  O195  1  0.23487940  0.87319099  0.07504890  1
  C  C196  1  0.05506714  0.98591569  0.28879453  1
  C  C197  1  0.12269335  0.89920974  0.22783841  1
  H  H198  1  0.30349783  0.87150121  0.33035436  1
  C  C199  1  0.10718912  0.84363780  0.19946344  1
  C  C200  1  0.48564963  0.86742295  0.43264881  1
  C  C201  1  0.47772214  0.95049024  0.35407468  1
  C  C202  1  0.12382380  0.78668682  0.46753265  1
  H  H203  1  0.45257741  0.84723410  0.47415758  1
  C  C204  1  0.41056392  0.99045285  0.31898495  1
  O  O205  1  0.45177510  0.99024715  0.06697119  1
  O  O206  1  0.01558364  0.81138761  0.19780008  1
  Zn  Zn207  1  0.34533724  0.75931094  0.11931220  1
  C  C208  1  0.24219448  0.75538541  0.19844731  1
  H  H209  1  0.21586651  0.75311997  0.24809484  1
  H  H210  1  0.20896726  0.85503967  0.00250608  1
  C  C211  1  0.32239616  0.80428235  0.69651428  1
  Zn  Zn212  1  0.17902621  0.94419260  0.90134521  1
  C  C213  1  0.40856293  0.82699646  0.66011891  1
  H  H214  1  0.41140645  0.87514295  0.64730105  1
  H  H215  1  0.25917196  0.84041091  0.70856462  1
  O  O216  1  0.38760677  0.92136398  0.89752761  1
  H  H217  1  0.26825269  0.86028010  0.93621322  1
  C  C218  1  0.03315712  0.81371922  0.50014030  1
  O  O219  1  0.28545403  0.97061962  0.65585006  1
  O  O220  1  0.19091610  0.85040644  0.95607520  1
  C  C221  1  0.47207654  0.95310546  0.88467316  1
  O  O222  1  0.11408967  0.98450156  0.78124847  1
  C  C223  1  0.48982899  0.78454078  0.63707094  1
  C  C224  1  0.87673040  0.04604399  0.40977413  1
  O  O225  1  0.54242427  0.05900115  0.43826984  1
  C  C226  1  0.59399598  0.07826732  0.06180910  1
  Zn  Zn227  1  0.71708947  0.19689149  0.37500275  1
  C  C228  1  0.74157799  0.23751108  0.28682344  1
  O  O229  1  0.93411306  0.14686715  0.37997986  1
  O  O230  1  0.64650053  0.13881743  0.45831853  1
  O  O231  1  0.86347893  0.21060431  0.25438938  1
  H  H232  1  0.78473599  0.05985672  0.41162925  1
  C  C233  1  0.62780585  0.08292045  0.46500847  1
  C  C234  1  0.60105272  0.12793097  0.01873113  1
  C  C235  1  0.95985824  0.09319067  0.39691149  1
  O  O236  1  0.66806846  0.05012229  0.16207676  1
  Zn  Zn237  1  0.71080328  0.24175371  0.03755128  1
  H  H238  1  0.72860991  0.11766916  0.12320517  1
  C  C239  1  0.66338978  0.08175446  0.11757021  1
  C  C240  1  0.50340091  0.03346018  0.04968045  1
  O  O241  1  0.66322136  0.22095756  0.25462956  1
  O  O242  1  0.79317603  0.22384652  0.11611894  1
  H  H243  1  0.73123933  0.22678479  0.14284189  1
  H  H244  1  0.91849491  0.23105725  0.27940518  1
  H  H245  1  0.94599011  0.17023443  0.62517933  1
  C  C246  1  0.81253798  0.04097792  0.79075365  1
  C  C247  1  0.78700217  0.07165715  0.53989539  1
  C  C248  1  0.88887696  0.15117124  0.73694904  1
  O  O249  1  0.56552889  0.13976388  0.59572914  1
  H  H250  1  0.89844783  0.04681073  0.61853693  1
  H  H251  1  0.86784797  0.19219708  0.89604065  1
  C  C252  1  0.76985694  0.09905538  0.81857919  1
  C  C253  1  0.79048385  0.21721302  0.80955151  1
  H  H254  1  0.92276376  0.19272624  0.71759890  1
  C  C255  1  0.81120898  0.15341555  0.78472082  1
  C  C256  1  0.59875099  0.04635817  0.86723945  1
  O  O257  1  0.81115994  0.12739766  0.53883869  1
  C  C258  1  0.90460465  0.04079166  0.74556844  1
  C  C259  1  0.51994053  0.14849160  0.64567774  1
  C  C260  1  0.83487417  0.23062876  0.86792521  1
  H  H261  1  0.78696895  0.10359886  0.86873443  1
  O  O262  1  0.62829875  0.09858787  0.84918081  1
  C  C263  1  0.93855742  0.09477687  0.71741539  1
  Zn  Zn264  1  0.69953078  0.19882690  0.55163021  1
  C  C265  1  0.83652627  0.02930606  0.58383343  1
  C  C266  1  0.70335730  0.04237395  0.50150464  1
  O  O267  1  0.68952446  0.15037713  0.99543316  1
  C  C268  1  0.55167444  0.43247177  0.11959391  1
  C  C269  1  0.84389082  0.32132489  0.33918995  1
  H  H270  1  0.53805016  0.40753194  0.46895540  1
  C  C271  1  0.82381963  0.38761657  0.33977531  1
  O  O272  1  0.90901666  0.27040556  0.47252237  1
  O  O273  1  0.91263127  0.35399225  0.18977896  1
  C  C274  1  0.71178858  0.41249504  0.34788846  1
  H  H275  1  0.60654975  0.47105628  0.10709043  1
  H  H276  1  0.89747318  0.41896362  0.33121956  1
  C  C277  1  0.61416653  0.37360154  0.36147071  1
  C  C278  1  0.73967744  0.28431869  0.33768350  1
  H  H279  1  0.96708415  0.45937577  0.22876542  1
  C  C280  1  0.65506089  0.37941679  0.04357037  1
  H  H281  1  0.55022818  0.27933322  0.36137616  1
  C  C282  1  0.63491390  0.30948356  0.36271204  1
  C  C283  1  0.56773673  0.37712183  0.09197069  1
  H  H284  1  0.69739205  0.46042261  0.34321091  1
  O  O285  1  0.53127812  0.27595994  0.08599482  1
  O  O286  1  0.94050794  0.29598585  0.34408623  1
  O  O287  1  0.71409657  0.42656834  0.03569350  1
  C  C288  1  0.50228782  0.32426478  0.10973168  1
  O  O289  1  0.66977669  0.33105185  0.01112455  1
  C  C290  1  0.99765401  0.36578183  0.22350743  1
  Zn  Zn291  1  0.93116935  0.25226320  0.16860310  1
  O  O292  1  0.92542674  0.35225299  0.96412114  1
  H  H293  1  0.72880351  0.35830278  0.75917180  1
  Zn  Zn294  1  0.82357686  0.43538222  0.95566973  1
  C  C295  1  0.81124244  0.34288475  0.84408046  1
  C  C296  1  0.75466067  0.32209018  0.79058113  1
  C  C297  1  0.52687175  0.26775896  0.63066313  1
  C  C298  1  0.84015175  0.29110936  0.88404584  1
  C  C299  1  0.89087249  0.30001231  0.94423125  1
  H  H300  1  0.95473638  0.26264491  0.64081956  1
  O  O301  1  0.82667910  0.39532070  0.86438589  1
  C  C302  1  0.54030206  0.46696426  0.65536999  1
  O  O303  1  0.62563925  0.48646934  0.62674187  1
  O  O304  1  0.54169013  0.46671067  0.71251928  1
  O  O305  1  0.89144340  0.25622044  0.97974980  1
  H  H306  1  0.52341295  0.44975156  0.53678849  1
  O  O307  1  0.82793253  0.26923421  0.56390562  1
  C  C308  1  0.91950357  0.27028810  0.52899232  1
  O  O309  1  0.56629852  0.26418776  0.57648816  1
  H  H310  1  0.51774799  0.36711495  0.63596380  1
  C  C311  1  0.74451215  0.26244051  0.76893979  1
  C  C312  1  0.50356873  0.32302247  0.66164091  1
  H  H313  1  0.70406050  0.25106921  0.72810583  1
  H  H314  1  0.92223131  0.60356360  0.31816648  1
  O  O315  1  0.83540873  0.59129277  0.32391738  1
  C  C316  1  0.79612808  0.73743347  0.20562899  1
  O  O317  1  0.89257253  0.74596709  0.02612206  1
  C  C318  1  0.71708466  0.63696322  0.18880661  1
  C  C319  1  0.81499757  0.69210696  0.10647880  1
  C  C320  1  0.99597247  0.68652311  0.34921348  1
  C  C321  1  0.73813248  0.68336275  0.22880292  1
  O  O322  1  0.60644509  0.53697940  0.47859645  1
  C  C323  1  0.75617798  0.63657432  0.12650180  1
  C  C324  1  0.66764838  0.68171364  0.44028873  1
  C  C325  1  0.88011382  0.68674122  0.37491692  1
  C  C326  1  0.69601898  0.63919133  0.39626444  1
  H  H327  1  0.66231630  0.59713426  0.20785328  1
  H  H328  1  0.58109978  0.68230148  0.46088227  1
  O  O329  1  0.72023470  0.59412306  0.09305906  1
  H  H330  1  0.70545734  0.67916067  0.27543192  1
  C  C331  1  0.80172587  0.63613993  0.36268497  1
  H  H332  1  0.57876665  0.68417914  0.13736789  1
  H  H333  1  0.63160093  0.60382643  0.38774027  1
  C  C334  1  0.85547387  0.70009216  0.04526603  1
  H  H335  1  0.53283253  0.53168102  0.39391833  1
  C  C336  1  0.74239986  0.73078754  0.45199647  1
  O  O337  1  0.53261752  0.71129110  0.28124997  1
  C  C338  1  0.84118206  0.73499421  0.41502404  1
  C  C339  1  0.82937682  0.74023020  0.14598173  1
  O  O340  1  0.50177337  0.55545605  0.02281523  1
  O  O341  1  0.85273629  0.64172948  0.00539088  1
  O  O342  1  0.57668386  0.59272055  0.91282771  1
  H  H343  1  0.71996650  0.50885911  0.90847973  1
  C  C344  1  0.88055842  0.67886052  0.57397042  1
  O  O345  1  0.76877745  0.51938994  0.94188346  1
  O  O346  1  0.51248326  0.58924309  0.55304946  1
  C  C347  1  0.80831011  0.70451888  0.62242491  1
  H  H348  1  0.82103517  0.58570766  0.62147941  1
  H  H349  1  0.88676037  0.66362394  0.97220351  1
  Zn  Zn350  1  0.63413517  0.59088315  0.62570824  1
  C  C351  1  0.53456010  0.54378710  0.89109765  1
  O  O352  1  0.81008457  0.56934680  0.58095570  1
  C  C353  1  0.96066377  0.71427093  0.54081788  1
  H  H354  1  0.57802294  0.71511726  0.54209146  1
  O  O355  1  0.73437803  0.67441252  0.64932042  1
  C  C356  1  0.88064647  0.61832559  0.54662434  1
  O  O357  1  0.92749965  0.60235210  0.50175826  1
  H  H358  1  0.55642386  0.68918508  0.64624711  1
  C  C359  1  0.53654664  0.72494837  0.95216753  1
  O  O360  1  0.54497014  0.53137359  0.83516707  1
  O  O361  1  0.50411898  0.60707506  0.70093261  1
  O  O362  1  0.62226962  0.74868295  0.93091303  1
  Zn  Zn363  1  0.67461205  0.59070319  0.99639237  1
  C  C364  1  0.50765881  0.56835597  0.50196680  1
  H  H365  1  0.65861878  0.53819585  0.51177450  1
  H  H366  1  0.66008051  0.97669007  0.37229858  1
  H  H367  1  0.83535989  0.95260964  0.44118790  1
  H  H368  1  0.87520864  0.85947806  0.18276137  1
  C  C369  1  0.58198101  0.84250417  0.40222503  1
  C  C370  1  0.89485941  0.84167055  0.22971509  1
  H  H371  1  0.54128925  0.76084641  0.23889093  1
  H  H372  1  0.90467260  0.77065441  0.42074197  1
  H  H373  1  0.66272691  0.76770252  0.30125249  1
  H  H374  1  0.60872128  0.79292199  0.40994500  1
  C  C375  1  0.70604140  0.77695642  0.49953151  1
  H  H376  1  0.84377430  0.94112147  0.34448174  1
  H  H377  1  0.80754000  0.85037894  0.46048728  1
  H  H378  1  0.60300728  0.96507318  0.46938621  1
  C  C379  1  0.73542959  0.79914750  0.29118956  1
  C  C380  1  0.99868174  0.87312875  0.49121591  1
  C  C381  1  0.92030351  0.89336478  0.27323736  1
  C  C382  1  0.81683506  0.79031243  0.24744330  1
  C  C383  1  0.83743585  0.90085570  0.31633083  1
  C  C384  1  0.73771446  0.85813487  0.32065714  1
  C  C385  1  0.60543890  0.94436673  0.34600237  1
  C  C386  1  0.63918583  0.87762368  0.35827767  1
  C  C387  1  0.74757502  0.83812278  0.49751093  1
  H  H388  1  0.86802569  0.78013020  0.12945778  1
  O  O389  1  0.52767106  0.80436939  0.21365834  1
  C  C390  1  0.90325661  0.98864296  0.42712083  1
  Zn  Zn391  1  0.54883502  0.98353944  0.26185064  1
  H  H392  1  0.57204495  0.76988747  0.06158025  1
  C  C393  1  0.91555875  0.80525660  0.60135791  1
  C  C394  1  0.72659606  0.94771262  0.54386718  1
  C  C395  1  0.81640945  0.96961318  0.58421043  1
  O  O396  1  0.57297761  0.93171224  0.86957153  1
  C  C397  1  0.66825767  0.98585507  0.85940496  1
  H  H398  1  0.92413433  0.85404398  0.61142240  1
  C  C399  1  0.75131547  0.92875758  0.77273417  1
  O  O400  1  0.80844406  0.90800095  0.73127261  1
  H  H401  1  0.58671255  0.89760837  0.61434977  1
  C  C402  1  0.74949049  0.98548743  0.80673116  1
  C  C403  1  0.96839067  0.77755903  0.55063977  1
  H  H404  1  0.71793363  0.97600758  0.90077339  1
  C  C405  1  0.70388817  0.87791140  0.54071841  1
  H  H406  1  0.85990793  0.93788013  0.61545400  1
  H  H407  1  0.68464182  0.89227048  0.78784377  1
  C  C408  1  0.62196226  0.86120609  0.58571661  1
  C  C409  1  0.57686668  0.80090534  0.58839664  1
  H  H410  1  0.78977310  0.79459442  0.66357866  1
  H  H411  1  0.92898253  0.89566376  0.51808404  1
  C  C412  1  0.62225932  0.76044435  0.54319072  1
  C  C413  1  0.83922509  0.76708120  0.63243759  1
  C  C414  1  0.66522970  0.98213318  0.50324686  1
  H  H415  1  0.94105425  0.99730900  0.72994793  1
