# generated using pymatgen
data_ZnH12C19NO5
_symmetry_space_group_name_H-M   'P 1'
_cell_length_a   24.01036317
_cell_length_b   11.75144426
_cell_length_c   23.81274037
_cell_angle_alpha   90.00000000
_cell_angle_beta   90.00000000
_cell_angle_gamma   90.00000000
_symmetry_Int_Tables_number   1
_chemical_formula_structural   ZnH12C19NO5
_chemical_formula_sum   'Zn16 H192 C304 N16 O80'
_cell_volume   6718.91815819
_cell_formula_units_Z   16
loop_
 _symmetry_equiv_pos_site_id
 _symmetry_equiv_pos_as_xyz
  1  'x, y, z'
loop_
 _atom_site_type_symbol
 _atom_site_label
 _atom_site_symmetry_multiplicity
 _atom_site_fract_x
 _atom_site_fract_y
 _atom_site_fract_z
 _atom_site_occupancy
  H  H0  1  0.13515691  0.17457260  0.21253865  1
  C  C1  1  0.17679308  0.16362995  0.23327184  1
  C  C2  1  0.10100845  0.31707033  0.10056603  1
  H  H3  1  0.05780699  0.27866009  0.09901462  1
  C  C4  1  0.14332416  0.25263344  0.07889458  1
  O  O5  1  0.13546710  0.14017352  0.05125330  1
  C  C6  1  0.19525235  0.29955085  0.08150334  1
  C  C7  1  0.01845045  0.10036639  0.11615615  1
  N  N8  1  0.45842662  0.26319556  0.12355663  1
  C  C9  1  0.27075409  0.05587399  0.08279387  1
  H  H10  1  0.39030119  0.26735358  0.17052819  1
  C  C11  1  0.47546438  0.04192497  0.19456480  1
  C  C12  1  0.23822945  0.03624504  0.03515644  1
  C  C13  1  0.30999410  0.14376391  0.08012740  1
  H  H14  1  0.22948299  0.25240606  0.06144959  1
  H  H15  1  0.42476545  0.46611375  0.11323853  1
  H  H16  1  0.00310873  0.27771117  0.21423415  1
  H  H17  1  0.47545434  0.15947775  0.02152839  1
  C  C18  1  0.31345069  0.32085816  0.23785649  1
  C  C19  1  0.20768359  0.40452869  0.10551135  1
  H  H20  1  0.24759451  0.44287158  0.10227476  1
  C  C21  1  0.43073246  0.31520209  0.16396452  1
  C  C22  1  0.10958133  0.42374897  0.12578654  1
  O  O23  1  0.30716998  0.40146621  0.20235142  1
  H  H24  1  0.33201000  0.16674581  0.11882804  1
  C  C25  1  0.09979236  0.13057925  0.00856875  1
  H  H26  1  0.20804912  0.31615919  0.19265240  1
  C  C27  1  0.21448553  0.24897242  0.22427277  1
  C  C28  1  0.45128818  0.40922352  0.19427968  1
  N  N29  1  0.02310083  0.15038795  0.16624490  1
  H  H30  1  0.42883711  0.45447251  0.22614661  1
  O  O31  1  0.42458379  0.03483444  0.20463373  1
  H  H32  1  0.04298541  0.01501467  0.11415723  1
  C  C33  1  0.26706398  0.23667950  0.24999203  1
  H  H34  1  0.35361358  0.26117473  0.02611349  1
  H  H35  1  0.49931405  0.42272905  0.03936687  1
  O  O36  1  0.29344556  0.00625523  0.17624145  1
  C  C37  1  0.32272775  0.19309676  0.02899675  1
  C  C38  1  0.16399018  0.46949320  0.13048949  1
  H  H39  1  0.08242159  0.31011107  0.00070455  1
  H  H40  1  0.41323315  0.00574771  0.10909481  1
  H  H41  1  0.07480863  0.46941877  0.14362709  1
  C  C42  1  0.46065541  0.00186890  0.09909098  1
  C  C43  1  0.24378755  0.27925107  0.38191113  1
  H  H44  1  0.20262283  0.23625102  0.37091872  1
  Zn  Zn45  1  0.08815227  0.45709094  0.33948096  1
  H  H46  1  0.07254970  0.10412861  0.35998126  1
  H  H47  1  0.03175674  0.09166026  0.26030272  1
  H  H48  1  0.36853392  0.08198296  0.38407829  1
  O  O49  1  0.37659457  0.22164164  0.45653118  1
  C  C50  1  0.25679806  0.38816352  0.36202147  1
  C  C51  1  0.28472201  0.22879363  0.41386398  1
  C  C52  1  0.36653975  0.09617158  0.47144926  1
  C  C53  1  0.33619317  0.27551727  0.42832982  1
  O  O54  1  0.01302192  0.43665270  0.39033613  1
  H  H55  1  0.31565857  0.15281889  0.31076739  1
  H  H56  1  0.27878368  0.14101461  0.43342343  1
  O  O57  1  0.03438625  0.45768621  0.25185222  1
  C  C58  1  0.18265297  0.07126354  0.27002907  1
  O  O59  1  0.35773964  0.32046683  0.26304157  1
  C  C60  1  0.27548168  0.15101683  0.28993446  1
  C  C61  1  0.34083172  0.39214713  0.41021056  1
  O  O62  1  0.16928753  0.39825982  0.31469827  1
  H  H63  1  0.37919106  0.42955259  0.42452275  1
  H  H64  1  0.48776478  0.47180535  0.38879458  1
  C  C65  1  0.01487775  0.04153843  0.29462605  1
  C  C66  1  0.23472292  0.07107022  0.29807215  1
  C  C67  1  0.03695736  0.04683892  0.34929894  1
  C  C68  1  0.21629182  0.44188099  0.32260702  1
  C  C69  1  0.30519434  0.45077589  0.37637952  1
  C  C70  1  0.36316784  0.02890577  0.42297331  1
  O  O71  1  0.08879983  0.04113931  0.45326452  1
  H  H72  1  0.09644498  0.02502497  0.49465443  1
  H  H73  1  0.24232841  0.00506391  0.32991581  1
  O  O74  1  0.01927661  0.48879600  0.47903639  1
  H  H75  1  0.31932999  0.30561439  0.60844760  1
  O  O76  1  0.22833776  0.42167392  0.56920404  1
  H  H77  1  0.39235184  0.26250490  0.68974121  1
  O  O78  1  0.13853235  0.39611934  0.57525221  1
  C  C79  1  0.18742028  0.45368635  0.65952150  1
  C  C80  1  0.18388383  0.41790512  0.59960363  1
  H  H81  1  0.15319995  0.02425893  0.67551596  1
  C  C82  1  0.14390450  0.46540271  0.69948479  1
  O  O83  1  0.17100836  0.07976435  0.69891227  1
  C  C84  1  0.01301553  0.40572932  0.70246480  1
  C  C85  1  0.24286124  0.46747920  0.67969915  1
  C  C86  1  0.36178430  0.34144456  0.61185379  1
  C  C87  1  0.40139357  0.31456629  0.65255225  1
  H  H88  1  0.10164666  0.44834508  0.68388481  1
  N  N89  1  0.37274106  0.41257565  0.56847459  1
  C  C90  1  0.45490548  0.36344934  0.65272264  1
  O  O91  1  0.03735339  0.35276926  0.74321551  1
  C  C92  1  0.20640553  0.01252086  0.73132194  1
  H  H93  1  0.27659035  0.43949947  0.65553648  1
  C  C94  1  0.49779277  0.35779754  0.70240403  1
  C  C95  1  0.42350039  0.45576799  0.56558330  1
  H  H96  1  0.36507520  0.08929875  0.56079244  1
  C  C97  1  0.46374718  0.43787460  0.60657633  1
  C  C98  1  0.49727721  0.26782070  0.74211342  1
  H  H99  1  0.02260082  0.17010349  0.69073484  1
  Zn  Zn100  1  0.09812014  0.49707758  0.51743302  1
  H  H101  1  0.49801385  0.12369863  0.53105123  1
  C  C102  1  0.36207985  0.03921059  0.52260277  1
  H  H103  1  0.46394084  0.20299671  0.73904255  1
  O  O104  1  0.46633678  0.00502446  0.61414763  1
  C  C105  1  0.03485903  0.21819401  0.94107718  1
  C  C106  1  0.34741378  0.33292184  0.78919580  1
  C  C107  1  0.24959909  0.09743800  0.98612223  1
  H  H108  1  0.11076646  0.21741080  0.87738301  1
  C  C109  1  0.29099983  0.46043295  0.94920757  1
  C  C110  1  0.46140334  0.32226194  0.89918572  1
  C  C111  1  0.23435113  0.48657980  0.96075751  1
  H  H112  1  0.22184347  0.07211343  0.95054153  1
  H  H113  1  0.36985883  0.21966157  0.85876589  1
  C  C114  1  0.23522579  0.06671633  0.78112022  1
  C  C115  1  0.43820261  0.46093222  0.82035133  1
  H  H116  1  0.20295517  0.22770627  0.75468508  1
  C  C117  1  0.12430585  0.30698715  0.88424373  1
  H  H118  1  0.30148545  0.40744417  0.91354428  1
  C  C119  1  0.17311750  0.33431036  0.91389556  1
  C  C120  1  0.37877561  0.29626045  0.83571315  1
  C  C121  1  0.42532376  0.36541805  0.85277752  1
  H  H122  1  0.19985935  0.26565817  0.93166589  1
  H  H123  1  0.31073517  0.28762932  0.76920527  1
  H  H124  1  0.39590231  0.23042988  0.94863496  1
  H  H125  1  0.24524429  0.32546836  0.84283128  1
  C  C126  1  0.22788500  0.18647056  0.78528536  1
  C  C127  1  0.28828136  0.06327270  0.86659167  1
  C  C128  1  0.04179229  0.01222877  0.94182162  1
  Zn  Zn129  1  0.01683317  0.33259230  0.82643836  1
  C  C130  1  0.25126338  0.23482075  0.83541322  1
  O  O131  1  0.30664648  0.23043897  0.92943940  1
  C  C132  1  0.01956723  0.11150155  0.91849105  1
  C  C133  1  0.44214084  0.25118194  0.94354617  1
  C  C134  1  0.28188238  0.17828904  0.87751570  1
  C  C135  1  0.48146670  0.21079423  0.98239871  1
  N  N136  1  0.08880981  0.38409742  0.86338378  1
  C  C137  1  0.29307124  0.17553291  0.97813712  1
  C  C138  1  0.08213122  0.02758059  0.98272093  1
  C  C139  1  0.07360967  0.22490040  0.98331716  1
  C  C140  1  0.18271567  0.44781989  0.92771945  1
  H  H141  1  0.02029285  0.29857467  0.92059901  1
  N  N142  1  0.35921352  0.42610917  0.75808679  1
  C  C143  1  0.40000650  0.49343626  0.77824315  1
  C  C144  1  0.09872198  0.49704356  0.87172624  1
  H  H145  1  0.31229531  0.01699257  0.89856918  1
  C  C146  1  0.26748253  0.00554817  0.81963567  1
  C  C147  1  0.45261560  0.73096631  0.05702349  1
  C  C148  1  0.17755812  0.57273032  0.16099402  1
  C  C149  1  0.26789323  0.62309746  0.02888897  1
  H  H150  1  0.43555151  0.81939954  0.05664682  1
  C  C151  1  0.47908612  0.97423018  0.04557902  1
  O  O152  1  0.23346845  0.89478260  0.13550799  1
  O  O153  1  0.15731882  0.77613336  0.02841495  1
  O  O154  1  0.22752594  0.61224007  0.15934204  1
  C  C155  1  0.00778795  0.62263152  0.19868156  1
  C  C156  1  0.43012771  0.64961603  0.09401386  1
  C  C157  1  0.00535424  0.74291933  0.19197622  1
  H  H158  1  0.20231453  0.98122081  0.03945064  1
  O  O159  1  0.13718974  0.62843121  0.17901833  1
  O  O160  1  0.37688845  0.78295741  0.14366464  1
  Zn  Zn161  1  0.36119688  0.90559438  0.20549099  1
  Zn  Zn162  1  0.23750568  0.75023551  0.08381991  1
  O  O163  1  0.36339664  0.60302125  0.16375257  1
  C  C164  1  0.44398330  0.53478837  0.08635275  1
  Zn  Zn165  1  0.29157710  0.58005566  0.22498069  1
  C  C166  1  0.48335744  0.50891509  0.04674972  1
  C  C167  1  0.38625191  0.67862143  0.13626874  1
  H  H168  1  0.00236389  0.56606059  0.01679308  1
  H  H169  1  0.01691388  0.80792888  0.22150388  1
  H  H170  1  0.44963464  0.96154438  0.00979249  1
  N  N171  1  0.31937155  0.59238584  0.01799554  1
  C  C172  1  0.49301321  0.69427419  0.01839468  1
  H  H173  1  0.17678512  0.59482236  0.00664065  1
  C  C174  1  0.26479161  0.98232876  0.13488992  1
  Zn  Zn175  1  0.13037756  0.75444020  0.23976188  1
  H  H176  1  0.10322348  0.95404233  0.00281981  1
  O  O177  1  0.14211669  0.99728337  0.28005872  1
  H  H178  1  0.40781396  0.52242727  0.32260676  1
  C  C179  1  0.16103073  0.69834601  0.40400367  1
  C  C180  1  0.16819247  0.57767196  0.42269985  1
  C  C181  1  0.10807212  0.74068857  0.38422271  1
  H  H182  1  0.07188694  0.69454448  0.40012165  1
  C  C183  1  0.21134924  0.74878770  0.37793613  1
  C  C184  1  0.10534524  0.80425625  0.32414902  1
  O  O185  1  0.04845306  0.61769244  0.29193545  1
  C  C186  1  0.20877758  0.83396548  0.32779272  1
  O  O187  1  0.21340717  0.55278134  0.44216022  1
  H  H188  1  0.25305507  0.70309590  0.38143957  1
  C  C189  1  0.45350543  0.79114276  0.35779186  1
  Zn  Zn190  1  0.15670635  0.88137642  0.39552858  1
  H  H191  1  0.44340585  0.68191093  0.47753463  1
  C  C192  1  0.47403416  0.56327964  0.38361616  1
  C  C193  1  0.37014714  0.72916243  0.29904920  1
  H  H194  1  0.06290645  0.83971729  0.31347231  1
  O  O195  1  0.35446551  0.67423232  0.43978542  1
  H  H196  1  0.44414152  0.88047552  0.34349750  1
  H  H197  1  0.35420015  0.85815051  0.38147578  1
  H  H198  1  0.24793825  0.85080788  0.30613397  1
  O  O199  1  0.36868330  0.83215300  0.28414031  1
  C  C200  1  0.41983131  0.70380363  0.33525446  1
  O  O201  1  0.23181451  0.53015707  0.29804117  1
  O  O202  1  0.32895607  0.66651562  0.29155309  1
  C  C203  1  0.15389629  0.87696986  0.30669828  1
  C  C204  1  0.33759939  0.73161737  0.47856080  1
  C  C205  1  0.35162637  0.86014297  0.47621901  1
  C  C206  1  0.43137283  0.58757419  0.34478491  1
  H  H207  1  0.31238017  0.54047806  0.36528177  1
  C  C208  1  0.01182448  0.97463221  0.38830700  1
  C  C209  1  0.35486222  0.90920434  0.42186562  1
  C  C210  1  0.49443209  0.76366423  0.39787494  1
  C  C211  1  0.03888480  0.97491240  0.44545547  1
  O  O212  1  0.01944418  0.92216283  0.48329921  1
  C  C213  1  0.03058366  0.55958552  0.25041077  1
  O  O214  1  0.12665721  0.50862343  0.42217347  1
  C  C215  1  0.15078328  0.69415321  0.58182020  1
  O  O216  1  0.20300796  0.68559964  0.58246604  1
  C  C217  1  0.11805454  0.72300733  0.63343600  1
  O  O218  1  0.47710117  0.72735518  0.71383619  1
  O  O219  1  0.12407168  0.67354074  0.53681759  1
  H  H220  1  0.34486909  0.87086299  0.56268385  1
  C  C221  1  0.03802632  0.77647860  0.68355528  1
  O  O222  1  0.00443009  0.51179386  0.70374691  1
  O  O223  1  0.21429605  0.91550665  0.71750919  1
  C  C224  1  0.15146575  0.72635219  0.68460224  1
  C  C225  1  0.24722382  0.50777859  0.73482209  1
  O  O226  1  0.31701979  0.68941123  0.52404518  1
  H  H227  1  0.28402647  0.70360910  0.73578237  1
  H  H228  1  0.03098811  0.72911927  0.59893413  1
  C  C229  1  0.44408651  0.72114464  0.67181879  1
  Zn  Zn230  1  0.24536291  0.57256043  0.52747988  1
  H  H231  1  0.19482581  0.69504307  0.68578259  1
  C  C232  1  0.12371946  0.74629563  0.73342133  1
  C  C233  1  0.47389073  0.69083541  0.61870388  1
  H  H234  1  0.40037854  0.70318140  0.57436059  1
  C  C235  1  0.06021413  0.73669103  0.63365311  1
  C  C236  1  0.44479327  0.68964428  0.56852694  1
  C  C237  1  0.06558639  0.77934529  0.73654269  1
  O  O238  1  0.39532689  0.74820626  0.67317574  1
  C  C239  1  0.46861695  0.67375123  0.51604311  1
  C  C240  1  0.35178662  0.92208598  0.52550889  1
  H  H241  1  0.42579909  0.51223605  0.52872746  1
  C  C242  1  0.07308067  0.80475906  0.83401728  1
  C  C243  1  0.14587589  0.53148139  0.90245662  1
  H  H244  1  0.15153242  0.62314622  0.90750120  1
  C  C245  1  0.05579777  0.76565320  0.88848819  1
  C  C246  1  0.12825670  0.84996844  0.83217899  1
  H  H247  1  0.13942555  0.89897651  0.79381780  1
  C  C248  1  0.16262865  0.85534535  0.87884074  1
  C  C249  1  0.20667970  0.54103295  0.77434128  1
  C  C250  1  0.41617854  0.89974524  0.83753951  1
  O  O251  1  0.03689039  0.80871427  0.78509314  1
  O  O252  1  0.22142545  0.59180610  0.82374594  1
  C  C253  1  0.08997550  0.75534108  0.93627370  1
  H  H254  1  0.06621813  0.55415197  0.85458081  1
  H  H255  1  0.49906818  0.68810931  0.91820759  1
  H  H256  1  0.47760666  0.51451659  0.82423213  1
  H  H257  1  0.27403481  0.66605059  0.91357106  1
  H  H258  1  0.20225853  0.90209639  0.87466177  1
  H  H259  1  0.37912776  0.50198815  0.97832099  1
  O  O260  1  0.22828782  0.82572531  0.98140915  1
  H  H261  1  0.27468057  0.91361923  0.81146702  1
  C  C262  1  0.27067257  0.66891118  0.82456899  1
  C  C263  1  0.34178267  0.79577739  0.78888629  1
  C  C264  1  0.33968917  0.76949409  0.88506859  1
  O  O265  1  0.43872479  0.92461167  0.79155258  1
  C  C266  1  0.29333546  0.70012669  0.87714157  1
  O  O267  1  0.43440592  0.92414241  0.88364043  1
  C  C268  1  0.14148404  0.81039581  0.92902362  1
  H  H269  1  0.07336183  0.73119535  0.97741597  1
  C  C270  1  0.36584052  0.82048202  0.84014249  1
  H  H271  1  0.01160019  0.73206280  0.89329114  1
  H  H272  1  0.35296157  0.78315105  0.92934487  1
  C  C273  1  0.29781679  0.71973090  0.78049033  1
  H  H274  1  0.36049234  0.83172522  0.75288813  1
  C  C275  1  0.33400447  0.50968992  0.98158996  1
  H  H276  1  0.14946753  0.72774479  0.76997298  1
  H  H277  1  0.03224413  0.92414056  0.92805013  1
  H  H278  1  0.49595631  0.99715522  0.85060813  1
  C  C279  1  0.17899306  0.80237409  0.98183225  1
  H  H280  1  0.11498105  0.52428178  0.78047040  1
  C  C281  1  0.22168383  0.57210733  0.99965312  1
  H  H282  1  0.28811647  0.51749432  0.75323328  1
  C  C283  1  0.15301220  0.50983875  0.75232885  1
  H  H284  1  0.40294688  0.57058705  0.75183163  1
  N  N285  1  0.68649336  0.45475100  0.11503946  1
  C  C286  1  0.67620693  0.35182722  0.13615583  1
  H  H287  1  0.69386941  0.28180205  0.11030651  1
  H  H288  1  0.52548976  0.24317704  0.07714712  1
  C  C289  1  0.65076061  0.33165761  0.18763952  1
  H  H290  1  0.87392413  0.41442431  0.07295718  1
  Zn  Zn291  1  0.81969848  0.37161077  0.20484518  1
  C  C292  1  0.88308323  0.37620190  0.03308414  1
  H  H293  1  0.67535529  0.26011270  0.04717545  1
  Zn  Zn294  1  0.73242541  0.47554426  0.04088883  1
  H  H295  1  0.58066913  0.40597193  0.12916271  1
  C  C296  1  0.95546125  0.25082756  0.07946265  1
  C  C297  1  0.77171860  0.10663318  0.08596873  1
  C  C298  1  0.98603777  0.14647603  0.07366439  1
  C  C299  1  0.67928016  0.26258758  0.00141630  1
  C  C300  1  0.99542919  0.24840651  0.17101883  1
  O  O301  1  0.74780787  0.13680301  0.18230025  1
  C  C302  1  0.80678819  0.15095857  0.04326767  1
  H  H303  1  0.94318857  0.39155085  0.14336204  1
  H  H304  1  0.83261976  0.22788006  0.05327873  1
  C  C305  1  0.53642143  0.38560471  0.13819295  1
  H  H306  1  0.64768515  0.23923778  0.20103395  1
  C  C307  1  0.77569264  0.16448964  0.14302250  1
  O  O308  1  0.81068443  0.24675317  0.14288558  1
  O  O309  1  0.51143298  0.06710605  0.23036740  1
  C  C310  1  0.96326467  0.30713086  0.13081931  1
  C  C311  1  0.51102767  0.29460746  0.11255824  1
  C  C312  1  0.50427802  0.45174841  0.17709576  1
  C  C313  1  0.91856310  0.28057236  0.03002825  1
  H  H314  1  0.59091066  0.03891143  0.15916026  1
  C  C315  1  0.63209222  0.41972004  0.22196853  1
  H  H316  1  0.99263870  0.45704612  0.16225731  1
  H  H317  1  0.54176926  0.27400281  0.24381627  1
  C  C318  1  0.73773541  0.01830402  0.07340429  1
  H  H319  1  0.98064741  0.10683877  0.03108350  1
  C  C320  1  0.55920957  0.01661267  0.12706739  1
  C  C321  1  0.50137678  0.01944603  0.13963868  1
  C  C322  1  0.53607839  0.28997266  0.33798234  1
  C  C323  1  0.76027515  0.21474112  0.38046590  1
  H  H324  1  0.78844807  0.25172684  0.34802923  1
  H  H325  1  0.84681947  0.45857482  0.41907110  1
  N  N326  1  0.70807446  0.21221482  0.36126563  1
  H  H327  1  0.62540919  0.20004360  0.38550917  1
  C  C328  1  0.74002889  0.13463557  0.47320609  1
  H  H329  1  0.82428347  0.17488838  0.43965623  1
  C  C330  1  0.91253322  0.21640262  0.36611918  1
  H  H331  1  0.65300646  0.08925530  0.47652276  1
  N  N332  1  0.55454649  0.33405722  0.38603356  1
  C  C333  1  0.77869738  0.17055185  0.43108203  1
  H  H334  1  0.61118471  0.43551770  0.42333471  1
  C  C335  1  0.88149215  0.32190775  0.36740265  1
  H  H336  1  0.92046266  0.16441495  0.32913027  1
  C  C337  1  0.93105547  0.17810237  0.41807703  1
  C  C338  1  0.68537004  0.13572053  0.45147378  1
  C  C339  1  0.86970920  0.37942428  0.41928145  1
  C  C340  1  0.85837328  0.35366437  0.31174736  1
  O  O341  1  0.51701212  0.05914011  0.40726957  1
  C  C342  1  0.60242026  0.38969617  0.27869636  1
  C  C343  1  0.55830931  0.31265905  0.28321513  1
  C  C344  1  0.66937997  0.18471548  0.39919522  1
  O  O345  1  0.58371268  0.02743078  0.34665940  1
  C  C346  1  0.88877261  0.32966609  0.46963840  1
  O  O347  1  0.82826115  0.43629753  0.30464087  1
  C  C348  1  0.62095888  0.43855257  0.32957237  1
  H  H349  1  0.95518703  0.09952716  0.41734271  1
  C  C350  1  0.59337206  0.41359840  0.38054069  1
  O  O351  1  0.87061472  0.29872214  0.26746735  1
  H  H352  1  0.55352995  0.29014930  0.49483651  1
  C  C353  1  0.91835750  0.22768804  0.46952529  1
  H  H354  1  0.50911526  0.21710678  0.35116476  1
  C  C355  1  0.56217667  0.01623322  0.39480739  1
  H  H356  1  0.66063578  0.48680414  0.33143942  1
  C  C357  1  0.99621747  0.49393717  0.43079762  1
  C  C358  1  0.53066285  0.17009345  0.55740627  1
  C  C359  1  0.56310604  0.25939196  0.53778534  1
  C  C360  1  0.60537171  0.31309643  0.56729373  1
  H  H361  1  0.69626334  0.24537120  0.60192441  1
  C  C362  1  0.54023774  0.14106829  0.61344181  1
  C  C363  1  0.75574884  0.10286349  0.53258627  1
  C  C364  1  0.58358686  0.41222348  0.74970582  1
  C  C365  1  0.98087339  0.16396383  0.60916568  1
  H  H366  1  0.67248958  0.03398630  0.56192437  1
  C  C367  1  0.97364071  0.40020685  0.61032615  1
  H  H368  1  0.63835606  0.32228410  0.65278682  1
  C  C369  1  0.85277978  0.46038647  0.65223982  1
  C  C370  1  0.71684739  0.05274429  0.56898458  1
  C  C371  1  0.73439076  0.03204561  0.62322215  1
  C  C372  1  0.69741410  0.40271940  0.56016335  1
  O  O373  1  0.94157310  0.15699062  0.51708946  1
  C  C374  1  0.54631601  0.42811065  0.70455785  1
  N  N375  1  0.78545282  0.05543565  0.64105111  1
  C  C376  1  0.95457332  0.33853792  0.56572025  1
  C  C377  1  0.95758809  0.21732835  0.56118186  1
  C  C378  1  0.82462840  0.08886429  0.60432721  1
  C  C379  1  0.77299201  0.31743048  0.62055385  1
  O  O380  1  0.86725014  0.40504143  0.69560007  1
  C  C381  1  0.61123369  0.27985363  0.62204300  1
  H  H382  1  0.58371828  0.17293974  0.69094959  1
  O  O383  1  0.64364098  0.39477121  0.54273486  1
  H  H384  1  0.86469699  0.10445902  0.62651633  1
  C  C385  1  0.72350335  0.31732165  0.59319126  1
  C  C386  1  0.57859091  0.19582407  0.64760410  1
  C  C387  1  0.81168789  0.12135448  0.54989217  1
  H  H388  1  0.78784878  0.24599201  0.64571950  1
  H  H389  1  0.94121396  0.39774435  0.52977005  1
  C  C390  1  0.80477831  0.41965712  0.61739364  1
  O  O391  1  0.68058445  0.16200824  0.69961533  1
  H  H392  1  0.87590575  0.36650308  0.51004828  1
  H  H393  1  0.84416269  0.16060695  0.52226886  1
  H  H394  1  0.98910564  0.07059212  0.61168894  1
  Zn  Zn395  1  0.83386879  0.28141772  0.74817278  1
  C  C396  1  0.69075315  0.24739930  0.72396628  1
  C  C397  1  0.50258673  0.05101258  0.63951998  1
  H  H398  1  0.55365874  0.49842156  0.67530635  1
  H  H399  1  0.96942173  0.49296024  0.61286886  1
  C  C400  1  0.99959039  0.21410906  0.65655178  1
  C  C401  1  0.99458553  0.33455327  0.65523017  1
  H  H402  1  0.50748348  0.47463800  0.59926154  1
  C  C403  1  0.78766420  0.49314446  0.57452978  1
  C  C404  1  0.73674986  0.48642832  0.54702401  1
  O  O405  1  0.51486105  0.02267103  0.69001040  1
  O  O406  1  0.70126668  0.33160378  0.74777398  1
  C  C407  1  0.62983893  0.10264647  0.87045757  1
  C  C408  1  0.66353961  0.18889920  0.90726267  1
  C  C409  1  0.57371049  0.08388367  0.88020424  1
  O  O410  1  0.96315273  0.19641769  0.84458118  1
  H  H411  1  0.69677400  0.06428993  0.81037394  1
  C  C412  1  0.79693921  0.01437117  0.87508754  1
  C  C413  1  0.53781989  0.26462954  0.78363592  1
  C  C414  1  0.55293722  0.30408202  0.93981723  1
  N  N415  1  0.85211895  0.35613452  0.93823566  1
  C  C416  1  0.65047104  0.05376270  0.82089850  1
  H  H417  1  0.74104831  0.43789668  0.92037760  1
  H  H418  1  0.55481647  0.11240297  0.92064127  1
  H  H419  1  0.68981475  0.31403969  0.84390598  1
  C  C420  1  0.77665141  0.00092694  0.97661396  1
  H  H421  1  0.83641330  0.13367950  0.95915961  1
  H  H422  1  0.78255570  0.18647443  0.90405776  1
  C  C423  1  0.79447943  0.13051248  0.87017288  1
  H  H424  1  0.53652935  0.40894770  0.86659019  1
  C  C425  1  0.71398683  0.35805892  0.92824825  1
  C  C426  1  0.88730149  0.26865662  0.93197634  1
  N  N427  1  0.57839892  0.33990170  0.79214332  1
  H  H428  1  0.98917988  0.46146759  0.92474517  1
  H  H429  1  0.88173187  0.23554517  0.88916926  1
  C  C430  1  0.81166331  0.17986008  0.81836513  1
  H  H431  1  0.53893423  0.20207338  0.81561333  1
  C  C432  1  0.69103784  0.28689220  0.88678472  1
  C  C433  1  0.97585788  0.10126504  0.87134970  1
  C  C434  1  0.80906705  0.09780574  0.99177031  1
  H  H435  1  0.63744585  0.10027660  0.98164556  1
  H  H436  1  0.82891526  0.49786891  0.98161092  1
  H  H437  1  0.59761073  0.32197750  0.94829494  1
  C  C438  1  0.54125003  0.01642252  0.84322241  1
  O  O439  1  0.94056481  0.44570234  0.82929356  1
  C  C440  1  0.51823675  0.34806455  0.89845873  1
  C  C441  1  0.66070126  0.17327726  0.96518168  1
  C  C442  1  0.82767290  0.11588485  0.77207992  1
  N  N443  1  0.70694789  0.35138483  0.98272227  1
  N  N444  1  0.53389282  0.24204418  0.98280509  1
  C  C445  1  0.85745833  0.41851718  0.98278472  1
  O  O446  1  0.95473357  0.01429859  0.85713458  1
  H  H447  1  0.64559009  0.47916497  0.91869727  1
  C  C448  1  0.92041284  0.22628081  0.97526560  1
  H  H449  1  0.95267921  0.16206904  0.97002740  1
  H  H450  1  0.62474255  0.45381579  0.76030257  1
  C  C451  1  0.89978824  0.78521745  0.23754718  1
  H  H452  1  0.68715418  0.66445290  0.04050324  1
  H  H453  1  0.60813163  0.79081570  0.05438470  1
  H  H454  1  0.54235046  0.84973519  0.16565300  1
  C  C455  1  0.54023175  0.76683055  0.18557858  1
  O  O456  1  0.79446055  0.52726412  0.18497539  1
  C  C457  1  0.74250217  0.96708639  0.02027370  1
  C  C458  1  0.99121143  0.55019106  0.15467389  1
  C  C459  1  0.62536318  0.79021473  0.01181028  1
  C  C460  1  0.66958069  0.71474063  0.00549314  1
  C  C461  1  0.53166600  0.66096936  0.16138295  1
  H  H462  1  0.68134117  0.62170822  0.12630515  1
  O  O463  1  0.68424302  0.79466336  0.17701297  1
  H  H464  1  0.98765097  0.87913468  0.13405927  1
  C  C465  1  0.53590803  0.96303350  0.02992462  1
  C  C466  1  0.51377401  0.58465865  0.01435741  1
  C  C467  1  0.57533583  0.99022171  0.07272384  1
  Zn  Zn468  1  0.82197389  0.87201702  0.21576807  1
  C  C469  1  0.80317251  0.60159614  0.14769210  1
  C  C470  1  0.98757081  0.78680303  0.13959055  1
  H  H471  1  0.95571006  0.54626317  0.07333104  1
  C  C472  1  0.81878798  0.71522429  0.17255534  1
  C  C473  1  0.97281516  0.72014792  0.09439829  1
  C  C474  1  0.90949959  0.89194990  0.20974983  1
  C  C475  1  0.66973549  0.54086808  0.14646902  1
  H  H476  1  0.63111663  0.60869426  0.22523017  1
  O  O477  1  0.80165245  0.57844628  0.09727592  1
  C  C478  1  0.84699442  0.70796172  0.22767114  1
  H  H479  1  0.84463197  0.62140970  0.24669974  1
  O  O480  1  0.95210882  0.77454821  0.04172382  1
  C  C481  1  0.83836234  0.80215877  0.13370268  1
  H  H482  1  0.52437884  0.65071265  0.11579888  1
  C  C483  1  0.88128633  0.89577711  0.15417262  1
  C  C484  1  0.64428142  0.52884740  0.19914971  1
  O  O485  1  0.64630601  0.94287553  0.21677549  1
  H  H486  1  0.83421188  0.78765384  0.08817011  1
  C  C487  1  0.52544016  0.56790758  0.19924132  1
  C  C488  1  0.68056522  0.85762137  0.21738598  1
  C  C489  1  0.97438165  0.60400716  0.10504735  1
  H  H490  1  0.71493189  0.89520010  0.00795194  1
  O  O491  1  0.93884703  0.97977268  0.22780228  1
  H  H492  1  0.62008540  0.98745826  0.06290735  1
  H  H493  1  0.73709708  0.65094492  0.24869231  1
  H  H494  1  0.71168954  0.98058456  0.10651281  1
  H  H495  1  0.89162543  0.96291214  0.12468720  1
  N  N496  1  0.54427505  0.78677775  0.24045143  1
  C  C497  1  0.53765805  0.70022386  0.27613850  1
  C  C498  1  0.71376178  0.82369153  0.26912010  1
  H  H499  1  0.86053013  0.69223337  0.33232652  1
  C  C500  1  0.71425801  0.91521492  0.30821678  1
  C  C501  1  0.74519579  0.89853383  0.35635591  1
  H  H502  1  0.92877646  0.75233269  0.27116693  1
  C  C503  1  0.50493644  0.64949425  0.41046287  1
  H  H504  1  0.94308332  0.86305494  0.41391540  1
  C  C505  1  0.93973764  0.91804092  0.32459641  1
  O  O506  1  0.81004583  0.79386190  0.41746666  1
  C  C507  1  0.52712225  0.58932999  0.25837774  1
  H  H508  1  0.79012756  0.62836140  0.34216810  1
  C  C509  1  0.92183945  0.59329632  0.37394909  1
  H  H510  1  0.93769498  0.55478234  0.33592822  1
  H  H511  1  0.89952976  0.87293469  0.31490986  1
  C  C512  1  0.77843415  0.80310644  0.36483001  1
  C  C513  1  0.77071238  0.71021743  0.32958299  1
  H  H514  1  0.70717418  0.79485142  0.47246251  1
  C  C515  1  0.87816216  0.67096356  0.37158868  1
  H  H516  1  0.74831605  0.97066755  0.38634381  1
  Zn  Zn517  1  0.56457215  0.94843646  0.26988625  1
  C  C518  1  0.96454757  0.90518401  0.37750719  1
  C  C519  1  0.74101238  0.72234755  0.27921260  1
  H  H520  1  0.53972065  0.73217934  0.31818460  1
  C  C521  1  0.85290520  0.72041757  0.41858618  1
  C  C522  1  0.64254521  0.89217112  0.42917923  1
  H  H523  1  0.66337056  0.88694645  0.38686028  1
  C  C524  1  0.59238044  0.94819265  0.43909237  1
  H  H525  1  0.68900762  0.99666695  0.30055709  1
  C  C526  1  0.94854056  0.57305012  0.42448840  1
  H  H527  1  0.51306170  0.83727424  0.42032866  1
  O  O528  1  0.54653315  0.62381730  0.45927181  1
  C  C529  1  0.88204379  0.69370852  0.46941429  1
  C  C530  1  0.66621941  0.83794946  0.47743432  1
  C  C531  1  0.92691936  0.62267407  0.47331302  1
  C  C532  1  0.96559920  0.97925977  0.28236860  1
  H  H533  1  0.51831926  0.51565623  0.28777292  1
  C  C534  1  0.56265607  0.94045893  0.49056334  1
  C  C535  1  0.71972100  0.77239847  0.58991194  1
  O  O536  1  0.92386500  0.86480037  0.61790912  1
  O  O537  1  0.59571254  0.77341624  0.72918098  1
  C  C538  1  0.75913585  0.83005698  0.55722499  1
  O  O539  1  0.66547992  0.77347405  0.57871822  1
  C  C540  1  0.53131805  0.65951137  0.61724878  1
  C  C541  1  0.52688353  0.64471005  0.51095138  1
  H  H542  1  0.59690027  0.59545746  0.56187599  1
  C  C543  1  0.55347856  0.62881531  0.56512001  1
  O  O544  1  0.66268506  0.65584821  0.73812796  1
  H  H545  1  0.84166366  0.93756214  0.74233029  1
  H  H546  1  0.72237037  0.54647018  0.51456699  1
  C  C547  1  0.79252359  0.72888841  0.65685492  1
  C  C548  1  0.89134294  0.81108185  0.64658357  1
  C  C549  1  0.63975043  0.83185164  0.52861757  1
  C  C550  1  0.58656948  0.87877531  0.53482704  1
  Zn  Zn551  1  0.93051503  0.59926886  0.70684942  1
  C  C552  1  0.83395355  0.78552518  0.62199024  1
  H  H553  1  0.84436120  0.89800784  0.55499887  1
  O  O554  1  0.90746855  0.77574846  0.69438333  1
  C  C555  1  0.81338367  0.84380526  0.57647752  1
  H  H556  1  0.74404720  0.87908048  0.51941366  1
  C  C557  1  0.73898525  0.71795648  0.64038285  1
  H  H558  1  0.80590332  0.69631433  0.69961615  1
  H  H559  1  0.70686192  0.68154924  0.67105105  1
  H  H560  1  0.56400524  0.87620882  0.57683879  1
  H  H561  1  0.55591250  0.64892009  0.65746624  1
  H  H562  1  0.81298544  0.57414119  0.56929679  1
  H  H563  1  0.94562856  0.60457595  0.51451547  1
  O  O564  1  0.87700822  0.54700633  0.63823342  1
  H  H565  1  0.86641058  0.73582861  0.50793198  1
  H  H566  1  0.99324340  0.80038786  0.68276317  1
  H  H567  1  0.71219714  0.99217126  0.66040163  1
  Zn  Zn568  1  0.51548008  0.87753765  0.74453693  1
  H  H569  1  0.62997410  0.95100712  0.74349502  1
  H  H570  1  0.52178597  0.98174608  0.50225112  1
  C  C571  1  0.62393043  0.84184736  0.91637986  1
  C  C572  1  0.67115528  0.77738772  0.90842601  1
  H  H573  1  0.60691452  0.88826107  0.88020225  1
  C  C574  1  0.59802450  0.66414140  0.81654138  1
  O  O575  1  0.76318656  0.57760760  0.97531423  1
  C  C576  1  0.82847426  0.99368855  0.77716932  1
  C  C577  1  0.74055498  0.63694835  0.93624934  1
  C  C578  1  0.81464537  0.94721451  0.82938644  1
  H  H579  1  0.68818877  0.77039397  0.86507761  1
  C  C580  1  0.97208801  0.54825723  0.93381124  1
  C  C581  1  0.53741697  0.65777402  0.89753600  1
  O  O582  1  0.55163625  0.92410685  0.97379161  1
  O  O583  1  0.55595640  0.53058175  0.97903372  1
  C  C584  1  0.63341303  0.58550116  0.84569497  1
  C  C585  1  0.55102273  0.69931861  0.84480211  1
  H  H586  1  0.67213601  0.54961742  0.82606257  1
  H  H587  1  0.90181348  0.84147008  0.96092827  1
  C  C588  1  0.61574624  0.54468675  0.89683169  1
  O  O589  1  0.74958481  0.62085230  0.88761829  1
  C  C590  1  0.69398830  0.71582108  0.95299588  1
  C  C591  1  0.59811582  0.85435756  0.96923694  1
  C  C592  1  0.97844909  0.60792788  0.98361073  1
  H  H593  1  0.81386255  0.85394282  0.83644627  1
  C  C594  1  0.93945340  0.60702711  0.89135993  1
  C  C595  1  0.62141158  0.69797594  0.75783327  1
  C  C596  1  0.91549289  0.71495650  0.89702181  1
  H  H597  1  0.88753006  0.75136493  0.86555927  1
  C  C598  1  0.92252399  0.76040192  0.94903878  1
  O  O599  1  0.90855892  0.59984936  0.79449522  1
  O  O600  1  0.77362344  0.95297751  0.92377231  1
  C  C601  1  0.93023979  0.54785042  0.83643809  1
  C  C602  1  0.56949909  0.57647707  0.92822851  1
  H  H603  1  0.52740932  0.76672733  0.82316495  1
  N  N604  1  0.56332926  0.97575384  0.79836913  1
  C  C605  1  0.95274447  0.71319317  0.99467178  1
  C  C606  1  0.61698026  0.99139762  0.78419729  1
  H  H607  1  0.51310260  0.76702301  0.99125070  1
