# generated using pymatgen
data_ZnH11(C11O2)2
_symmetry_space_group_name_H-M   'P 1'
_cell_length_a   11.09268419
_cell_length_b   17.49232402
_cell_length_c   30.28125312
_cell_angle_alpha   90.00000000
_cell_angle_beta   90.00000000
_cell_angle_gamma   90.00000000
_symmetry_Int_Tables_number   1
_chemical_formula_structural   ZnH11(C11O2)2
_chemical_formula_sum   'Zn12 H132 C264 O48'
_cell_volume   5875.67824409
_cell_formula_units_Z   12
loop_
 _symmetry_equiv_pos_site_id
 _symmetry_equiv_pos_as_xyz
  1  'x, y, z'
loop_
 _atom_site_type_symbol
 _atom_site_label
 _atom_site_symmetry_multiplicity
 _atom_site_fract_x
 _atom_site_fract_y
 _atom_site_fract_z
 _atom_site_occupancy
  C  C0  1  0.22765419  0.46384503  0.09228128  1
  H  H1  1  0.25717715  0.37341775  0.14063460  1
  C  C2  1  0.38327241  0.11789097  0.19413399  1
  C  C3  1  0.24474323  0.41421534  0.05368186  1
  C  C4  1  0.20463868  0.47604984  0.17347552  1
  O  O5  1  0.27856174  0.15119150  0.04188278  1
  C  C6  1  0.30508909  0.15464028  0.22664870  1
  C  C7  1  0.37377973  0.29368447  0.20723917  1
  C  C8  1  0.38455023  0.28449932  0.16054826  1
  C  C9  1  0.29612690  0.23852368  0.23300085  1
  H  H10  1  0.20072978  0.44740174  0.20584956  1
  O  O11  1  0.22633396  0.44367564  0.01615465  1
  C  C12  1  0.19582844  0.07943951  0.12110861  1
  C  C13  1  0.39138967  0.04054647  0.19365184  1
  C  C14  1  0.45614283  0.33815684  0.23362801  1
  H  H15  1  0.42853042  0.15115919  0.17042125  1
  H  H16  1  0.32174305  0.24514775  0.14186177  1
  Zn  Zn17  1  0.16311874  0.24732744  0.03777391  1
  C  C18  1  0.23465137  0.43462769  0.13647381  1
  C  C19  1  0.14285318  0.03685862  0.15557255  1
  H  H20  1  0.24386113  0.13273297  0.12757710  1
  O  O21  1  0.27191536  0.34458704  0.05759958  1
  C  C22  1  0.19067931  0.04637508  0.07842149  1
  H  H23  1  0.14489615  0.05870244  0.19106357  1
  C  C24  1  0.24942358  0.08131340  0.03794961  1
  O  O25  1  0.06820479  0.23961585  0.10033121  1
  O  O26  1  0.24010497  0.04669667  0.00285207  1
  C  C27  1  0.46939762  0.33157333  0.14140509  1
  H  H28  1  0.00474024  0.02587681  0.22753476  1
  H  H29  1  0.47838093  0.33268085  0.10586015  1
  H  H30  1  0.45051991  0.00793623  0.17104463  1
  H  H31  1  0.04305896  0.49293251  0.23949173  1
  O  O32  1  0.38195407  0.30017909  0.43015408  1
  C  C33  1  0.01931346  0.37385219  0.37520476  1
  O  O34  1  0.13729338  0.38535766  0.48848135  1
  C  C35  1  0.44592284  0.17139922  0.31782831  1
  C  C36  1  0.17262586  0.22646528  0.29799584  1
  C  C37  1  0.42466204  0.21978574  0.35378075  1
  C  C38  1  0.16163449  0.23484740  0.37949617  1
  H  H39  1  0.17080623  0.26007840  0.45035037  1
  Zn  Zn40  1  0.33259377  0.39021350  0.47704707  1
  C  C41  1  0.17727260  0.14452086  0.29558248  1
  C  C42  1  0.12341820  0.26706530  0.33755349  1
  C  C43  1  0.10241592  0.10207511  0.32529389  1
  H  H44  1  0.37092647  0.27168826  0.35095681  1
  C  C45  1  0.24645272  0.10932940  0.25978647  1
  H  H46  1  0.40872584  0.18241902  0.28415558  1
  C  C47  1  0.07449310  0.34811683  0.41478497  1
  C  C48  1  0.03794994  0.32819468  0.33787088  1
  O  O49  1  0.36453782  0.46407728  0.42156250  1
  C  C50  1  0.13876458  0.27681191  0.41810479  1
  C  C51  1  0.46386006  0.24951577  0.43085805  1
  C  C52  1  0.06937294  0.39902717  0.45570149  1
  H  H53  1  0.20859027  0.17864699  0.38162217  1
  C  C54  1  0.10128227  0.02213708  0.32292409  1
  C  C55  1  0.47982158  0.19598463  0.39187840  1
  H  H56  1  0.04858584  0.13065966  0.35154663  1
  C  C57  1  0.23221903  0.27447149  0.26712875  1
  O  O58  1  0.00643165  0.45637160  0.45419380  1
  H  H59  1  0.23946511  0.33753930  0.27230402  1
  H  H60  1  0.45499003  0.33535266  0.26953058  1
  C  C61  1  0.25239699  0.02602853  0.25908266  1
  H  H62  1  0.08824928  0.20047413  0.65293173  1
  H  H63  1  0.20382371  0.38810424  0.63747923  1
  H  H64  1  0.33904946  0.33140203  0.60416725  1
  C  C65  1  0.43589990  0.31535770  0.67233656  1
  C  C66  1  0.13194515  0.30297994  0.68620911  1
  C  C67  1  0.19482832  0.42443451  0.72329001  1
  C  C68  1  0.47012515  0.43011589  0.56185047  1
  C  C69  1  0.23044767  0.09625160  0.70866922  1
  H  H70  1  0.26151873  0.07452460  0.55491933  1
  C  C71  1  0.21244639  0.04920008  0.66776872  1
  C  C72  1  0.25316832  0.08774333  0.62792457  1
  C  C73  1  0.19324851  0.34185987  0.72030246  1
  C  C74  1  0.22739482  0.05038204  0.58756475  1
  H  H75  1  0.29898051  0.14175031  0.62535527  1
  C  C76  1  0.13905480  0.22469803  0.68030282  1
  H  H77  1  0.37530606  0.26747534  0.68368837  1
  H  H78  1  0.07921068  0.33098679  0.65939723  1
  C  C79  1  0.18543080  0.44886209  0.63924422  1
  C  C80  1  0.20988612  0.17759777  0.71051408  1
  C  C81  1  0.27452842  0.05628596  0.74676355  1
  O  O82  1  0.37545165  0.40350276  0.54448196  1
  C  C83  1  0.17173436  0.47560504  0.68445230  1
  C  C84  1  0.41243993  0.35043654  0.62627915  1
  H  H85  1  0.17961991  0.46500548  0.56790922  1
  Zn  Zn86  1  0.46434329  0.43497431  0.67575526  1
  C  C87  1  0.49294750  0.41145676  0.60887476  1
  C  C88  1  0.17394504  0.49116239  0.60179491  1
  C  C89  1  0.26537448  0.21495061  0.74863669  1
  C  C90  1  0.32838684  0.03544726  0.82340950  1
  C  C91  1  0.31684576  0.33682001  0.78917595  1
  C  C92  1  0.38322077  0.21757034  0.82037031  1
  H  H93  1  0.42314074  0.18781009  0.84858279  1
  H  H94  1  0.42297106  0.32717510  0.85017707  1
  H  H95  1  0.25490635  0.09685043  0.87928418  1
  C  C96  1  0.07315205  0.21551157  0.89613657  1
  C  C97  1  0.02182862  0.14315580  0.89968081  1
  C  C98  1  0.10420883  0.26173813  0.93600385  1
  C  C99  1  0.29966699  0.41752978  0.79330799  1
  O  O100  1  0.09586049  0.23420805  0.97409639  1
  C  C101  1  0.36330037  0.46202771  0.83128729  1
  C  C102  1  0.30934319  0.09309736  0.78577742  1
  O  O103  1  0.13724591  0.33030802  0.93184428  1
  C  C104  1  0.06384451  0.21567946  0.81617864  1
  C  C105  1  0.38036520  0.29663231  0.82178687  1
  C  C106  1  0.29807290  0.04252443  0.86901338  1
  H  H107  1  0.07817957  0.24153393  0.78237905  1
  C  C108  1  0.48648033  0.47495289  0.82323070  1
  C  C109  1  0.32029822  0.17581727  0.78552604  1
  H  H110  1  0.19845839  0.48643440  0.86682766  1
  Zn  Zn111  1  0.06967770  0.42503842  0.97202295  1
  H  H112  1  0.13785797  0.30719910  0.85363454  1
  C  C113  1  0.09684795  0.25097746  0.85527513  1
  C  C114  1  0.29665197  0.49867628  0.86626172  1
  H  H115  1  0.01179133  0.11358473  0.93148802  1
  C  C116  1  0.02795085  0.13740904  0.81899419  1
  C  C117  1  0.00621289  0.10283019  0.86104361  1
  C  C118  1  0.02086943  0.01209391  0.77480283  1
  C  C119  1  0.25162986  0.29563241  0.75314115  1
  C  C120  1  0.24541524  0.46208555  0.76012448  1
  H  H121  1  0.13715604  0.95423219  0.03585008  1
  H  H122  1  0.18196102  0.83878062  0.14143503  1
  H  H123  1  0.32417836  0.95834666  0.12909927  1
  C  C124  1  0.14536206  0.58028408  0.12369099  1
  C  C125  1  0.31819127  0.91129853  0.21759381  1
  C  C126  1  0.07295244  0.67995624  0.19806580  1
  C  C127  1  0.12498070  0.80093680  0.16332237  1
  C  C128  1  0.35623234  0.85102167  0.09479768  1
  C  C129  1  0.14129098  0.72460335  0.16693387  1
  C  C130  1  0.35402440  0.89801301  0.13280804  1
  C  C131  1  0.40498451  0.79383025  0.18294537  1
  H  H132  1  0.21121868  0.70255247  0.14578367  1
  C  C133  1  0.36027928  0.87005375  0.17758253  1
  H  H134  1  0.33682879  0.86969623  0.06070458  1
  C  C135  1  0.42013424  0.74496508  0.14532314  1
  C  C136  1  0.15431647  0.55063807  0.16725777  1
  C  C137  1  0.41513168  0.72193365  0.06260719  1
  H  H138  1  0.16946547  0.56295096  0.05273835  1
  C  C139  1  0.39582354  0.77284674  0.10276945  1
  H  H140  1  0.42585383  0.77497392  0.21623083  1
  H  H141  1  0.03748535  0.87728368  0.09877007  1
  C  C142  1  0.08349698  0.96738611  0.14644167  1
  H  H143  1  0.46042430  0.68869536  0.15143266  1
  C  C144  1  0.18402803  0.53830615  0.08679242  1
  H  H145  1  0.09690274  0.63343712  0.11570984  1
  C  C146  1  0.09009710  0.59741358  0.20129318  1
  C  C147  1  0.13367454  0.97713478  0.06980394  1
  O  O148  1  0.45870587  0.65985690  0.06598389  1
  C  C149  1  0.07570487  0.93486260  0.10266727  1
  O  O150  1  0.37905767  0.74477708  0.02455367  1
  C  C151  1  0.03735399  0.92797665  0.18683009  1
  C  C152  1  0.03778471  0.84591461  0.18899342  1
  C  C153  1  0.02722668  0.55507433  0.23434929  1
  C  C154  1  0.31883892  0.99488625  0.22255659  1
  H  H155  1  0.08047720  0.67131404  0.35040392  1
  H  H156  1  0.18796718  0.94887706  0.37233960  1
  C  C157  1  0.09856440  0.78178893  0.31920066  1
  H  H158  1  0.31782601  0.73933742  0.31730711  1
  O  O159  1  0.08264064  0.75429824  0.47314896  1
  C  C160  1  0.10366569  0.76774421  0.39604518  1
  Zn  Zn161  1  0.08991764  0.56344666  0.47639562  1
  H  H162  1  0.12543378  0.86470505  0.43888386  1
  C  C163  1  0.07814975  0.72093801  0.43626863  1
  C  C164  1  0.14058672  0.85738911  0.32311518  1
  C  C165  1  0.15771798  0.88856290  0.36752495  1
  O  O166  1  0.22518215  0.54989393  0.41862504  1
  C  C167  1  0.12737373  0.84597415  0.40407492  1
  H  H168  1  0.09052576  0.76094246  0.28497890  1
  C  C169  1  0.09563608  0.73128783  0.35476315  1
  C  C170  1  0.19065864  0.90265886  0.28423839  1
  C  C171  1  0.39493791  0.57605762  0.37479860  1
  C  C172  1  0.18091348  0.98461283  0.29130080  1
  C  C173  1  0.33037249  0.52932275  0.40841712  1
  H  H174  1  0.24244643  0.64975464  0.38109900  1
  C  C175  1  0.36872167  0.68797525  0.32696852  1
  C  C176  1  0.32245755  0.63802129  0.36007695  1
  H  H177  1  0.44799140  0.95379860  0.35007293  1
  H  H178  1  0.43614192  0.81319083  0.33999239  1
  C  C179  1  0.48156089  0.84825927  0.31361177  1
  C  C180  1  0.48976292  0.92798366  0.31882866  1
  C  C181  1  0.25816600  0.86833931  0.25044319  1
  C  C182  1  0.48782059  0.67128007  0.31099627  1
  H  H183  1  0.25110002  0.80443441  0.25147807  1
  O  O184  1  0.03842618  0.65400441  0.43276526  1
  H  H185  1  0.03759850  0.99406105  0.34525960  1
  C  C186  1  0.17926601  0.57174593  0.60998664  1
  H  H187  1  0.11782962  0.87594890  0.62719254  1
  O  O188  1  0.19674784  0.59381947  0.53210429  1
  Zn  Zn189  1  0.20868733  0.76845995  0.52591358  1
  O  O190  1  0.11008399  0.87307425  0.54313846  1
  H  H191  1  0.16556169  0.66561754  0.65555490  1
  H  H192  1  0.27354277  0.99456590  0.74713871  1
  C  C193  1  0.16822557  0.60363209  0.65239594  1
  C  C194  1  0.16896604  0.97180633  0.66893516  1
  C  C195  1  0.18943268  0.62091170  0.57056477  1
  C  C196  1  0.15421095  0.94110874  0.54471743  1
  O  O197  1  0.19471556  0.69390494  0.57711629  1
  H  H198  1  0.14581387  0.94321399  0.70086088  1
  H  H199  1  0.14933982  0.58909951  0.72139433  1
  C  C200  1  0.43103633  0.89800538  0.60497405  1
  C  C201  1  0.15254163  0.93515956  0.62861245  1
  C  C202  1  0.15427084  0.55836716  0.68997471  1
  H  H203  1  0.35842437  0.92125851  0.58142855  1
  C  C204  1  0.47451290  0.80471536  0.54466563  1
  H  H205  1  0.41527559  0.99015460  0.65614836  1
  O  O206  1  0.37928443  0.82011381  0.52313272  1
  C  C207  1  0.17428640  0.97714003  0.58920260  1
  C  C208  1  0.46558666  0.93952697  0.64495170  1
  O  O209  1  0.18364865  0.97549449  0.51152543  1
  O  O210  1  0.33996749  0.84965965  0.94890218  1
  C  C211  1  0.09698062  0.88973094  0.80222725  1
  C  C212  1  0.08744253  0.96872157  0.80687884  1
  C  C213  1  0.38123160  0.96612834  0.80591824  1
  C  C214  1  0.03420322  0.71021540  0.80157757  1
  C  C215  1  0.04899858  0.60042024  0.87141504  1
  C  C216  1  0.03643617  0.85396876  0.76489121  1
  H  H217  1  0.43884600  0.85091911  0.81813950  1
  C  C218  1  0.15540963  0.64290797  0.85727609  1
  H  H219  1  0.31218996  0.57000888  0.92643128  1
  C  C220  1  0.35660074  0.54268802  0.89655132  1
  H  H221  1  0.15468250  0.85417318  0.82414556  1
  C  C222  1  0.04006084  0.54234021  0.90810855  1
  C  C223  1  0.14862717  0.69141008  0.82074896  1
  C  C224  1  0.35499048  0.84094692  0.90894948  1
  O  O225  1  0.38344489  0.77970566  0.89393031  1
  C  C226  1  0.39319908  0.90117208  0.83267934  1
  C  C227  1  0.35275874  0.90951798  0.87694431  1
  C  C228  1  0.01856268  0.76867186  0.76398047  1
  H  H229  1  0.22708215  0.72198895  0.80752636  1
  H  H230  1  0.23720917  0.63318299  0.87526592  1
  H  H231  1  0.42192067  0.96497418  0.77238251  1
  O  O232  1  0.12756769  0.52599178  0.93173322  1
  Zn  Zn233  1  0.46999487  0.74429755  0.96688299  1
  C  C234  1  0.48212317  0.55188748  0.88790862  1
  C  C235  1  0.29711663  0.97584138  0.89483328  1
  H  H236  1  0.24325512  0.52402747  0.75982405  1
  H  H237  1  0.13802131  0.99995592  0.83261259  1
  H  H238  1  0.27058316  0.97994001  0.92990866  1
  O  O239  1  0.66779528  0.41275336  0.09722899  1
  O  O240  1  0.94076286  0.33272667  0.10918811  1
  C  C241  1  0.87511340  0.21448472  0.13351765  1
  C  C242  1  0.65470792  0.41732702  0.13945114  1
  C  C243  1  0.72876286  0.10743130  0.18042338  1
  H  H244  1  0.60662874  0.20992021  0.19274434  1
  C  C245  1  0.69053718  0.18539743  0.17624628  1
  C  C246  1  0.76562510  0.23708718  0.15434625  1
  C  C247  1  0.91321933  0.13572556  0.13709518  1
  C  C248  1  0.55310886  0.37830271  0.16385090  1
  C  C249  1  0.66211315  0.05904710  0.21257039  1
  C  C250  1  0.96714680  0.26376991  0.11226924  1
  C  C251  1  0.84014204  0.08311687  0.15932574  1
  H  H252  1  0.72843580  0.29607224  0.15151803  1
  Zn  Zn253  1  0.84153480  0.40512774  0.06903174  1
  H  H254  1  0.99955614  0.11740191  0.12142406  1
  H  H255  1  0.87844490  0.02368506  0.16235598  1
  O  O256  1  0.73204970  0.45065753  0.16007021  1
  H  H257  1  0.60613661  0.42079358  0.22799536  1
  C  C258  1  0.54290515  0.38276958  0.21023480  1
  C  C259  1  0.60575486  0.10038528  0.24861496  1
  C  C260  1  0.56917546  0.08408183  0.36464458  1
  O  O261  1  0.81578361  0.16946788  0.41161891  1
  H  H262  1  0.77670354  0.36844808  0.32270066  1
  C  C263  1  0.84646574  0.46940472  0.28949121  1
  H  H264  1  0.85201529  0.43996856  0.25737509  1
  C  C265  1  0.82255352  0.09545377  0.41595509  1
  H  H266  1  0.83883388  0.07179357  0.25840515  1
  O  O267  1  0.72185238  0.35350769  0.39962786  1
  C  C268  1  0.77419409  0.46951952  0.36577062  1
  C  C269  1  0.79990587  0.42944229  0.32561577  1
  O  O270  1  0.70349304  0.46125268  0.43855902  1
  H  H271  1  0.81522847  0.14833655  0.32807288  1
  H  H272  1  0.61680972  0.02918525  0.36762150  1
  C  C273  1  0.72638755  0.42398327  0.40385202  1
  Zn  Zn274  1  0.73156617  0.25824386  0.44853761  1
  C  C275  1  0.83945023  0.04528592  0.29211644  1
  O  O276  1  0.53483465  0.24518377  0.46207294  1
  C  C277  1  0.82178280  0.08732734  0.33040934  1
  O  O278  1  0.82904787  0.06445009  0.45065109  1
  H  H279  1  0.60213358  0.11991055  0.43152694  1
  C  C280  1  0.82093875  0.05251996  0.37215403  1
  C  C281  1  0.55984218  0.06008171  0.28482294  1
  C  C282  1  0.55673497  0.13288119  0.40031528  1
  C  C283  1  0.51778022  0.10755571  0.32420312  1
  H  H284  1  0.97255184  0.43050360  0.37749669  1
  H  H285  1  0.99716207  0.34952508  0.30791922  1
  H  H286  1  0.60037827  0.16210946  0.25056863  1
  Zn  Zn287  1  0.70780453  0.44083776  0.50558310  1
  C  C288  1  0.57017701  0.08237454  0.67555555  1
  H  H289  1  0.75052800  0.31506672  0.62850774  1
  H  H290  1  0.68444211  0.43693903  0.60770671  1
  C  C291  1  0.90514473  0.16639912  0.58111397  1
  C  C292  1  0.58658182  0.27882256  0.72997610  1
  H  H293  1  0.53165689  0.06291077  0.64385991  1
  C  C294  1  0.81593012  0.21354303  0.66451478  1
  C  C295  1  0.80406740  0.27860640  0.54416462  1
  C  C296  1  0.83582442  0.23364224  0.58518088  1
  C  C297  1  0.63560875  0.38943336  0.67634044  1
  O  O298  1  0.77459272  0.34774656  0.54832795  1
  H  H299  1  0.73252772  0.38222476  0.68746138  1
  C  C300  1  0.56405910  0.16162299  0.68059259  1
  C  C301  1  0.59676277  0.19806558  0.72153245  1
  H  H302  1  0.51942969  0.19694174  0.65418705  1
  C  C303  1  0.61145081  0.03290429  0.71091100  1
  C  C304  1  0.61001323  0.42042113  0.62889554  1
  C  C305  1  0.55160720  0.32969197  0.69493419  1
  C  C306  1  0.79031449  0.25581881  0.62639194  1
  C  C307  1  0.92856566  0.12265926  0.61813237  1
  C  C308  1  0.90169421  0.02153665  0.70271260  1
  O  O309  1  0.54868624  0.46761829  0.54391843  1
  H  H310  1  0.78436858  0.23454442  0.69568108  1
  C  C311  1  0.88083137  0.14417122  0.66005589  1
  C  C312  1  0.90405399  0.10379146  0.70312880  1
  H  H313  1  0.94127758  0.15123324  0.54894040  1
  O  O314  1  0.81888233  0.25150759  0.50608815  1
  H  H315  1  0.79280786  0.01034727  0.64345380  1
  H  H316  1  0.99037261  0.06828967  0.61849963  1
  C  C317  1  0.94566767  0.13687418  0.74308070  1
  C  C318  1  0.65800369  0.38940070  0.91349327  1
  H  H319  1  0.89016507  0.25698308  0.85019577  1
  O  O320  1  0.73958164  0.46243930  0.98701225  1
  C  C321  1  0.80351476  0.41009802  0.97455328  1
  C  C322  1  0.67194830  0.26678890  0.80649667  1
  C  C323  1  0.63027850  0.35768631  0.87284749  1
  C  C324  1  0.67211338  0.18634514  0.79966606  1
  H  H325  1  0.63487284  0.37483636  0.77223101  1
  C  C326  1  0.82387234  0.28802628  0.86927770  1
  H  H327  1  0.59221209  0.43084635  0.92681250  1
  C  C328  1  0.70914311  0.30497928  0.84979178  1
  H  H329  1  0.74941978  0.16220452  0.86689776  1
  C  C330  1  0.63737003  0.15046073  0.75808376  1
  H  H331  1  0.93144531  0.29930845  0.92909649  1
  C  C332  1  0.72252629  0.13783434  0.83443122  1
  C  C333  1  0.84299886  0.31303111  0.91239706  1
  C  C334  1  0.76933356  0.36949689  0.93342064  1
  C  C335  1  0.72794018  0.05946426  0.83016034  1
  C  C336  1  0.63331265  0.31217538  0.77015796  1
  H  H337  1  0.76501891  0.02409910  0.85709485  1
  H  H338  1  0.54383336  0.37359248  0.85547020  1
  C  C339  1  0.64919430  0.06943832  0.75232579  1
  C  C340  1  0.68744002  0.02321640  0.78930408  1
  O  O341  1  0.89754220  0.38963498  0.99931599  1
  H  H342  1  0.98120890  0.04322903  0.86423483  1
  C  C343  1  0.99586025  0.09467190  0.77806378  1
  H  H344  1  0.53753042  0.44614108  0.79758803  1
  H  H345  1  0.93017791  0.19768017  0.75020862  1
  H  H346  1  0.61328250  0.76548344  0.11422607  1
  C  C347  1  0.77345558  0.62840357  0.17937997  1
  H  H348  1  0.78176958  0.60735602  0.21252344  1
  H  H349  1  0.76989224  0.83071574  0.15281487  1
  H  H350  1  0.76867428  0.70675096  0.05351124  1
  C  C351  1  0.84370067  0.61957325  0.09771005  1
  H  H352  1  0.94586339  0.57375559  0.15296754  1
  C  C353  1  0.63501318  0.73226399  0.20461814  1
  C  C354  1  0.89509548  0.58133485  0.05883546  1
  C  C355  1  0.85883794  0.59450260  0.14446511  1
  C  C356  1  0.67382770  0.71493203  0.12287661  1
  O  O357  1  0.87637494  0.61578327  0.02226125  1
  O  O358  1  0.94384635  0.51727727  0.06497900  1
  C  C359  1  0.98243342  0.96375531  0.22532252  1
  C  C360  1  0.64250576  0.81386547  0.20832816  1
  H  H361  1  0.75809949  0.96727152  0.15297806  1
  C  C362  1  0.70641293  0.85716018  0.17594901  1
  C  C363  1  0.67781518  0.68487688  0.16788128  1
  C  C364  1  0.76594555  0.68459828  0.08751536  1
  Zn  Zn365  1  0.67183150  0.59415302  0.12152386  1
  C  C366  1  0.70553818  0.93602393  0.17731984  1
  C  C367  1  0.99399358  0.72191056  0.22780069  1
  C  C368  1  0.65784085  0.97691371  0.21398347  1
  H  H369  1  0.59675108  0.61885266  0.23835821  1
  C  C370  1  0.97610239  0.80315643  0.22310112  1
  C  C371  1  0.58439418  0.85674921  0.24455750  1
  C  C372  1  0.58803151  0.68272146  0.23853997  1
  C  C373  1  0.59517660  0.93460533  0.24918374  1
  C  C374  1  0.79757627  0.54652227  0.36994202  1
  C  C375  1  0.87636403  0.54872365  0.29455408  1
  C  C376  1  0.94324862  0.59589311  0.26045303  1
  H  H377  1  0.75523064  0.68399851  0.29599130  1
  C  C378  1  0.85497401  0.58730046  0.33579127  1
  C  C379  1  0.92430831  0.67940670  0.25888008  1
  H  H380  1  0.88566000  0.64526715  0.34167560  1
  H  H381  1  0.89148602  0.87274343  0.34531651  1
  C  C382  1  0.53127220  0.80647060  0.27800180  1
  C  C383  1  0.87198382  0.93314596  0.34067234  1
  C  C384  1  0.86708745  0.96931896  0.29758479  1
  C  C385  1  0.82757272  0.71660641  0.28120704  1
  C  C386  1  0.83877162  0.97330182  0.37812091  1
  H  H387  1  0.55873406  0.51374138  0.37141148  1
  H  H388  1  0.74332845  0.82018545  0.29752169  1
  C  C389  1  0.81872226  0.79534933  0.28066675  1
  H  H390  1  0.64988308  0.59152341  0.31221830  1
  H  H391  1  0.78557961  0.57375437  0.40350540  1
  C  C392  1  0.90444976  0.84203073  0.25646421  1
  C  C393  1  0.56046845  0.60564069  0.32552521  1
  C  C394  1  0.54555979  0.97616567  0.28752280  1
  H  H395  1  0.83391638  0.94269232  0.40995020  1
  C  C396  1  0.91841390  0.92511253  0.25928701  1
  C  C397  1  0.53576698  0.72226533  0.27494061  1
  C  C398  1  0.50825185  0.55895412  0.35655768  1
  H  H399  1  0.85702677  0.64937136  0.68759054  1
  C  C400  1  0.87536148  0.66604371  0.65277523  1
  H  H401  1  0.82402373  0.87856621  0.62901866  1
  H  H402  1  0.94587759  0.82194395  0.58922158  1
  C  C403  1  0.63350380  0.84193566  0.65341306  1
  C  C404  1  0.87753269  0.63406499  0.57563926  1
  H  H405  1  0.80556211  0.55913395  0.62633033  1
  C  C406  1  0.60682507  0.81220248  0.61247094  1
  C  C407  1  0.86434871  0.57475571  0.53949770  1
  H  H408  1  0.71765132  0.82184706  0.67062060  1
  H  H409  1  0.65350342  0.76018846  0.60189257  1
  C  C410  1  0.93029139  0.76189171  0.59702354  1
  C  C411  1  0.85041454  0.61482533  0.61894459  1
  C  C412  1  0.60856359  0.95106984  0.70973574  1
  O  O413  1  0.89734798  0.59256951  0.50208798  1
  C  C414  1  0.87240383  0.90400239  0.65744626  1
  C  C415  1  0.56695813  0.90994801  0.66965952  1
  C  C416  1  0.85244039  0.98032995  0.66469509  1
  C  C417  1  0.50639941  0.84297376  0.58921057  1
  C  C418  1  0.93092595  0.86030927  0.69152634  1
  C  C419  1  0.95135579  0.78062521  0.68498186  1
  C  C420  1  0.92198559  0.70724341  0.56390767  1
  H  H421  1  0.95570287  0.71339708  0.53060831  1
  C  C422  1  0.92315934  0.73890298  0.64292519  1
  O  O423  1  0.55334879  0.76575155  0.52692856  1
  C  C424  1  0.98001851  0.89826622  0.73145240  1
  H  H425  1  0.99367451  0.67384262  0.71937736  1
  C  C426  1  0.98973058  0.73729933  0.72312215  1
  C  C427  1  0.96910360  0.97988365  0.73520235  1
  O  O428  1  0.80182609  0.51635221  0.54680450  1
  H  H429  1  0.63529982  0.84465094  0.74499740  1
  C  C430  1  0.63890531  0.90639444  0.74772193  1
  C  C431  1  0.73467643  0.76743070  0.95183752  1
  C  C432  1  0.81425933  0.80534238  0.87327577  1
  C  C433  1  0.62364073  0.91008076  0.86659471  1
  C  C434  1  0.64193707  0.86531562  0.90382432  1
  H  H435  1  0.87047247  0.84153162  0.80811340  1
  H  H436  1  0.55109321  0.95213924  0.86573209  1
  O  O437  1  0.81855710  0.72091204  0.95910755  1
  C  C438  1  0.73206862  0.81040691  0.90787416  1
  H  H439  1  0.89302384  0.76751106  0.87738334  1
  H  H440  1  0.57540448  0.87379659  0.93081973  1
  C  C441  1  0.80296853  0.84790724  0.83424563  1
  C  C442  1  0.69889519  0.89520248  0.82954240  1
  O  O443  1  0.66428676  0.59586578  0.91486135  1
  O  O444  1  0.65711343  0.78018796  0.97998109  1
  Zn  Zn445  1  0.80626854  0.59163558  0.96094190  1
  C  C446  1  0.67959533  0.94130999  0.78671656  1
  C  C447  1  0.93183360  0.67026518  0.81792168  1
  C  C448  1  0.93884102  0.61563252  0.85163025  1
  H  H449  1  0.86142982  0.58042367  0.86072857  1
  H  H450  1  0.84723503  0.68090144  0.79844446  1
  O  O451  1  0.50323296  0.62910913  0.95187981  1
  C  C452  1  0.55203738  0.59735686  0.91978356  1
  H  H453  1  0.63895875  0.54435919  0.84527738  1
  C  C454  1  0.54632874  0.52722829  0.85089362  1
  O  O455  1  0.93852985  0.51598826  0.92165589  1
