# generated using pymatgen
data_Zn4H6C12N6O7
_symmetry_space_group_name_H-M   'P 1'
_cell_length_a   28.46136564
_cell_length_b   24.36222910
_cell_length_c   19.85426771
_cell_angle_alpha   90.00000000
_cell_angle_beta   90.00000000
_cell_angle_gamma   90.00000000
_symmetry_Int_Tables_number   1
_chemical_formula_structural   Zn4H6C12N6O7
_chemical_formula_sum   'Zn64 H96 C192 N96 O112'
_cell_volume   13766.59801165
_cell_formula_units_Z   16
loop_
 _symmetry_equiv_pos_site_id
 _symmetry_equiv_pos_as_xyz
  1  'x, y, z'
loop_
 _atom_site_type_symbol
 _atom_site_label
 _atom_site_symmetry_multiplicity
 _atom_site_fract_x
 _atom_site_fract_y
 _atom_site_fract_z
 _atom_site_occupancy
  Zn  Zn0  1  0.22174634  0.39551190  0.35452567  1
  H  H1  1  0.15525377  0.13820046  0.29918769  1
  C  C2  1  0.05854641  0.09785765  0.28909391  1
  C  C3  1  0.14605728  0.10929788  0.25791940  1
  C  C4  1  0.24872539  0.28057932  0.21827749  1
  N  N5  1  0.17360397  0.09152529  0.21157217  1
  C  C6  1  0.10019174  0.08448826  0.24590469  1
  Zn  Zn7  1  0.24784562  0.46387906  0.22426197  1
  O  O8  1  0.14840813  0.49036321  0.42942429  1
  O  O9  1  0.06630900  0.11961005  0.34581024  1
  H  H10  1  0.18926796  0.22509631  0.25036497  1
  C  C11  1  0.09858868  0.04991636  0.18896159  1
  O  O12  1  0.19882784  0.34446725  0.27104352  1
  H  H13  1  0.06906231  0.02717990  0.16777130  1
  Zn  Zn14  1  0.16704734  0.00796518  0.08871225  1
  Zn  Zn15  1  0.23999947  0.11131494  0.19959229  1
  C  C16  1  0.22476746  0.23102015  0.23196186  1
  O  O17  1  0.19010227  0.41630253  0.45109281  1
  Zn  Zn18  1  0.04821862  0.07406415  0.43955501  1
  O  O19  1  0.01696614  0.08353673  0.27580971  1
  N  N20  1  0.13976079  0.05062010  0.16276570  1
  C  C21  1  0.15501788  0.44526241  0.46116856  1
  O  O22  1  0.24207706  0.47049063  0.32080663  1
  C  C23  1  0.23455042  0.33637889  0.23547115  1
  N  N24  1  0.21344894  0.02791548  0.01857336  1
  O  O25  1  0.21587485  0.15605808  0.07612145  1
  O  O26  1  0.19964036  0.17398801  0.02163732  1
  Zn  Zn27  1  0.22175270  0.25372732  0.00195831  1
  O  O28  1  0.11350475  0.03886487  0.48874123  1
  C  C29  1  0.19022859  0.30305035  0.86350751  1
  C  C30  1  0.22562007  0.33873170  0.96762168  1
  N  N31  1  0.09300883  0.37363015  0.59170270  1
  C  C32  1  0.14576346  0.31459164  0.82868651  1
  Zn  Zn33  1  0.01631909  0.46165572  0.65286964  1
  H  H34  1  0.18819005  0.00307644  0.56728865  1
  N  N35  1  0.07404869  0.34290803  0.80595807  1
  O  O36  1  0.09576553  0.00127041  0.91193074  1
  C  C37  1  0.10424200  0.34229459  0.85566312  1
  Zn  Zn38  1  0.07903105  0.31230956  0.65247235  1
  H  H39  1  0.16453834  0.01842766  0.94499565  1
  N  N40  1  0.06464311  0.43341683  0.58777908  1
  C  C41  1  0.24000768  0.04381235  0.91079359  1
  H  H42  1  0.17173890  0.27829305  0.72907787  1
  C  C43  1  0.08205600  0.46108500  0.53907299  1
  O  O44  1  0.22341829  0.27901952  0.84673518  1
  N  N45  1  0.02760552  0.45511039  0.75077529  1
  C  C46  1  0.03646945  0.21260394  0.59871664  1
  C  C47  1  0.14343216  0.29748515  0.75898054  1
  H  H48  1  0.10029560  0.36331751  0.90303962  1
  C  C49  1  0.12499833  0.37829230  0.54520995  1
  N  N50  1  0.10261478  0.31312423  0.73985174  1
  O  O51  1  0.18760409  0.34021997  0.93182233  1
  C  C52  1  0.04797113  0.49282309  0.78586018  1
  H  H53  1  0.07236172  0.20024802  0.57988179  1
  H  H54  1  0.05442131  0.48176175  0.84009596  1
  H  H55  1  0.23913178  0.04772034  0.85544959  1
  C  C56  1  0.20179787  0.02874955  0.95602452  1
  O  O57  1  0.14575265  0.23594202  0.53090133  1
  O  O58  1  0.18669243  0.25887968  0.62954174  1
  C  C59  1  0.11983756  0.42935649  0.51219948  1
  Zn  Zn60  1  0.01589983  0.38242433  0.79001717  1
  N  N61  1  0.03045489  0.25794977  0.63006355  1
  C  C62  1  0.16669971  0.24692738  0.58089926  1
  H  H63  1  0.15022121  0.34571455  0.53417136  1
  O  O64  1  0.02228880  0.11786408  0.52963266  1
  C  C65  1  0.24795318  0.49223477  0.93244812  1
  N  N66  1  0.08047578  0.62237882  0.12263402  1
  C  C67  1  0.00967683  0.88355616  0.34056725  1
  C  C68  1  0.11755709  0.55843267  0.18454086  1
  O  O69  1  0.01758140  0.93150965  0.32000485  1
  H  H70  1  0.08116949  0.56906942  0.28586884  1
  C  C71  1  0.11096025  0.58340567  0.12014854  1
  C  C72  1  0.08442975  0.57916227  0.23248362  1
  H  H73  1  0.13298152  0.80591425  0.03627679  1
  N  N74  1  0.06128527  0.61822163  0.20240810  1
  Zn  Zn75  1  0.05515840  0.67202251  0.05129830  1
  N  N76  1  0.02065268  0.86009059  0.04362118  1
  Zn  Zn77  1  0.19446566  0.52511997  0.35243723  1
  H  H78  1  0.15116924  0.88531838  0.22134967  1
  O  O79  1  0.06010634  0.97608865  0.47305547  1
  Zn  Zn80  1  0.02192363  0.67392064  0.23955397  1
  H  H81  1  0.01367904  0.76752415  0.35660060  1
  H  H82  1  0.03560908  0.89217164  0.19209222  1
  C  C83  1  0.01844793  0.78508899  0.30561969  1
  C  C84  1  0.12531911  0.76131796  0.03190330  1
  H  H85  1  0.18841942  0.69581323  0.45716307  1
  C  C86  1  0.08517105  0.65080200  0.43761917  1
  C  C87  1  0.13452276  0.91014632  0.13991368  1
  Zn  Zn88  1  0.03795144  0.79057275  0.09534137  1
  N  N89  1  0.03402836  0.80466432  0.19137857  1
  H  H90  1  0.12789879  0.57476443  0.07145889  1
  N  N91  1  0.08640415  0.74323805  0.05839118  1
  N  N92  1  0.13075200  0.93887747  0.09409921  1
  C  C93  1  0.02205401  0.84180338  0.28927516  1
  O  O94  1  0.13209816  0.86859548  0.18146641  1
  O  O95  1  0.20641841  0.59792184  0.39984509  1
  N  N96  1  0.02276685  0.75660157  0.25120763  1
  C  C97  1  0.03287072  0.85133631  0.21935170  1
  C  C98  1  0.15287053  0.51928407  0.20903904  1
  O  O99  1  0.15063466  0.50129360  0.26912561  1
  O  O100  1  0.10139211  0.66956354  0.39501935  1
  C  C101  1  0.22166526  0.69446010  0.48443086  1
  Zn  Zn102  1  0.07662530  0.91233881  0.01376312  1
  O  O103  1  0.18667292  0.50523912  0.17059150  1
  C  C104  1  0.24728876  0.60597761  0.42869619  1
  O  O105  1  0.01620348  0.99391200  0.11561658  1
  C  C106  1  0.10141890  0.98849362  0.49624381  1
  Zn  Zn107  1  0.01917740  0.90183168  0.48856024  1
  C  C108  1  0.05886082  0.76987057  0.66889838  1
  Zn  Zn109  1  0.24948936  0.91156602  0.63175883  1
  H  H110  1  0.07218573  0.74095816  0.55838551  1
  C  C111  1  0.14714879  0.72111460  0.99240634  1
  C  C112  1  0.08419944  0.76311543  0.60520641  1
  H  H113  1  0.19458410  0.70191583  0.69061875  1
  C  C114  1  0.04957489  0.57122073  0.69376587  1
  Zn  Zn115  1  0.11731832  0.61995888  0.93605693  1
  O  O116  1  0.08646275  0.56523364  0.87214799  1
  C  C117  1  0.13412642  0.90759474  0.92970882  1
  C  C118  1  0.10312013  0.95554539  0.92550256  1
  H  H119  1  0.06912503  0.50540467  0.52476971  1
  O  O120  1  0.16750137  0.87972307  0.92110031  1
  O  O121  1  0.21196431  0.51708696  0.92464070  1
  H  H122  1  0.05354854  0.61384460  0.67887703  1
  N  N123  1  0.23276790  0.88771119  0.72368445  1
  N  N124  1  0.12601689  0.78304975  0.61158066  1
  C  C125  1  0.08612895  0.79314304  0.71981738  1
  H  H126  1  0.08084340  0.80481590  0.77689420  1
  N  N127  1  0.12803029  0.80088625  0.69565982  1
  N  N128  1  0.16444784  0.86361325  0.53826655  1
  H  H129  1  0.14514219  0.71726117  0.66793929  1
  N  N130  1  0.22564399  0.73611164  0.52375898  1
  O  O131  1  0.08160682  0.63369217  0.80198634  1
  C  C132  1  0.07374003  0.58406511  0.81538161  1
  N  N133  1  0.16139333  0.68064993  0.95660535  1
  H  H134  1  0.20240254  0.74489512  0.83051600  1
  N  N135  1  0.19781918  0.91767851  0.56493206  1
  C  C136  1  0.13037460  0.94557868  0.52158616  1
  C  C137  1  0.01471110  0.77501094  0.84044136  1
  O  O138  1  0.04996564  0.79769509  0.85918571  1
  Zn  Zn139  1  0.18494382  0.82873826  0.73024222  1
  Zn  Zn140  1  0.22137641  0.67939705  0.90844282  1
  C  C141  1  0.05487397  0.54793973  0.76351490  1
  H  H142  1  0.00136893  0.59007577  0.89635376  1
  C  C143  1  0.22468957  0.73346777  0.78534668  1
  N  N144  1  0.22311904  0.76428351  0.73350367  1
  N  N145  1  0.03216431  0.54220241  0.64572455  1
  Zn  Zn146  1  0.03214206  0.69862580  0.81168037  1
  O  O147  1  0.16459571  0.68696616  0.67913085  1
  N  N148  1  0.04829050  0.62939879  0.96786415  1
  Zn  Zn149  1  0.17545094  0.78601597  0.54271263  1
  C  C150  1  0.17432082  0.96127193  0.55024329  1
  C  C151  1  0.12259091  0.88305193  0.51963014  1
  C  C152  1  0.00718530  0.61697192  0.93967683  1
  C  C153  1  0.00895561  0.75734055  0.66338288  1
  H  H154  1  0.23668994  0.88377864  0.82489847  1
  O  O155  1  0.08737676  0.85553761  0.50369275  1
  O  O156  1  0.46969072  0.08161239  0.45093463  1
  C  C157  1  0.31574755  0.04341069  0.25038397  1
  N  N158  1  0.28870275  0.05908069  0.20098400  1
  N  N159  1  0.35158806  0.22059117  0.04615741  1
  H  H160  1  0.43871181  0.07998886  0.03419951  1
  C  C161  1  0.35156013  0.01281726  0.14583404  1
  C  C162  1  0.35619534  0.33255603  0.49652798  1
  O  O163  1  0.41210609  0.12878893  0.24850413  1
  C  C164  1  0.40736240  0.40409950  0.45840036  1
  C  C165  1  0.32698415  0.39347649  0.39981312  1
  C  C166  1  0.36344745  0.37752920  0.44965188  1
  O  O167  1  0.25907039  0.37677084  0.21611025  1
  C  C168  1  0.42815412  0.08609650  0.14997301  1
  H  H169  1  0.31366777  0.05555434  0.30514041  1
  C  C170  1  0.35606649  0.02014537  0.21717996  1
  N  N171  1  0.40946516  0.12284146  0.18528486  1
  C  C172  1  0.32992177  0.26041668  0.03690383  1
  Zn  Zn173  1  0.28184345  0.04246692  0.04166533  1
  H  H174  1  0.44717598  0.05084583  0.17520078  1
  N  N175  1  0.31236665  0.03799819  0.12962494  1
  N  N176  1  0.39414841  0.14121439  0.06475509  1
  C  C177  1  0.41803429  0.09761326  0.07977323  1
  H  H178  1  0.31995677  0.30635341  0.17930567  1
  H  H179  1  0.32627751  0.30304449  0.49466155  1
  Zn  Zn180  1  0.36296308  0.18483419  0.13983587  1
  C  C181  1  0.29486209  0.27346513  0.18751760  1
  O  O182  1  0.29155950  0.36355936  0.39029444  1
  N  N183  1  0.25260133  0.19155385  0.21049241  1
  N  N184  1  0.30331058  0.22182229  0.18139951  1
  O  O185  1  0.33586118  0.43229238  0.36237837  1
  H  H186  1  0.31394383  0.27824892  0.08094570  1
  H  H187  1  0.42000653  0.44214926  0.43312124  1
  Zn  Zn188  1  0.44677354  0.00897670  0.39939464  1
  H  H189  1  0.37585693  0.19251455  0.70538874  1
  C  C190  1  0.40027967  0.22128917  0.80871292  1
  C  C191  1  0.39423130  0.22424226  0.73701031  1
  C  C192  1  0.42278561  0.26618466  0.85059915  1
  H  H193  1  0.33683317  0.03459547  0.69506659  1
  O  O194  1  0.42923875  0.31444296  0.82645312  1
  O  O195  1  0.35375278  0.16792417  0.55843951  1
  C  C196  1  0.29732664  0.48843011  0.94901181  1
  C  C197  1  0.45703904  0.17980789  0.52436243  1
  C  C198  1  0.34336874  0.14884102  0.61179393  1
  Zn  Zn199  1  0.38282260  0.17120230  0.97817723  1
  C  C200  1  0.27036327  0.31642067  0.97632879  1
  O  O201  1  0.33494730  0.13214187  0.66479654  1
  H  H202  1  0.41224718  0.40907581  0.80077699  1
  N  N203  1  0.39403625  0.32702786  0.53244640  1
  C  C204  1  0.38439760  0.17402929  0.84333726  1
  Zn  Zn205  1  0.33806623  0.07585345  0.88288624  1
  N  N206  1  0.37256037  0.14714251  0.88882434  1
  N  N207  1  0.46388798  0.22105149  0.56082104  1
  N  N208  1  0.41633345  0.25685730  0.69541595  1
  Zn  Zn209  1  0.48318338  0.40485355  0.56183271  1
  O  O210  1  0.31296855  0.30037195  0.97676680  1
  N  N211  1  0.45419563  0.43479644  0.64294623  1
  Zn  Zn212  1  0.41239341  0.26364931  0.59841744  1
  C  C213  1  0.43809277  0.48402334  0.65933663  1
  O  O214  1  0.42887197  0.25532226  0.90919885  1
  N  N215  1  0.44323549  0.39525097  0.71344343  1
  O  O216  1  0.49665176  0.45292897  0.89547256  1
  C  C217  1  0.42404499  0.42688200  0.75348162  1
  C  C218  1  0.41998838  0.48229335  0.72659413  1
  Zn  Zn219  1  0.46110090  0.31454656  0.72258168  1
  N  N220  1  0.27880646  0.05212581  0.94427138  1
  Zn  Zn221  1  0.27466683  0.40254229  0.93870709  1
  H  H222  1  0.42090953  0.16732062  0.50540203  1
  N  N223  1  0.42771731  0.38197829  0.50874247  1
  N  N224  1  0.31658056  0.00101099  0.67815899  1
  H  H225  1  0.40619354  0.59437052  0.25324521  1
  O  O226  1  0.45826199  0.57179556  0.36175461  1
  C  C227  1  0.40740448  0.58570029  0.19763159  1
  O  O228  1  0.42627835  0.97280116  0.22358208  1
  C  C229  1  0.40999550  0.89450433  0.47476827  1
  N  N230  1  0.44097627  0.60169417  0.15756622  1
  N  N231  1  0.42562392  0.58294220  0.07811256  1
  C  C232  1  0.37549873  0.55500158  0.15658638  1
  C  C233  1  0.33684177  0.53225065  0.19715865  1
  O  O234  1  0.41492406  0.94615520  0.47231833  1
  C  C235  1  0.38713939  0.55599830  0.08660368  1
  O  O236  1  0.30605732  0.50247900  0.17077924  1
  O  O237  1  0.33464049  0.54548172  0.25986527  1
  O  O238  1  0.43790967  0.86326679  0.44629019  1
  Zn  Zn239  1  0.49767768  0.89669039  0.38300028  1
  N  N240  1  0.49796668  0.71978213  0.17830119  1
  O  O241  1  0.27881839  0.57073099  0.41482390  1
  H  H242  1  0.36616352  0.53650999  0.04421741  1
  Zn  Zn243  1  0.29994889  0.51288148  0.34461255  1
  C  C244  1  0.25496613  0.65041894  0.47536721  1
  C  C245  1  0.39441126  0.99539097  0.25746010  1
  O  O246  1  0.39793456  0.99824474  0.32118669  1
  C  C247  1  0.47092447  0.61208759  0.35480077  1
  Zn  Zn248  1  0.49436127  0.63932657  0.18161819  1
  H  H249  1  0.37535826  0.98986196  0.11035848  1
  Zn  Zn250  1  0.49781654  0.97116368  0.26279919  1
  O  O251  1  0.48815231  0.94764730  0.03872059  1
  C  C252  1  0.43181386  0.75606878  0.91943410  1
  H  H253  1  0.34585219  0.55061803  0.83142696  1
  N  N254  1  0.45895010  0.67949823  0.97455690  1
  H  H255  1  0.39795367  0.66863815  0.92155059  1
  C  C256  1  0.27817280  0.65863970  0.84417848  1
  N  N257  1  0.31303461  0.68120346  0.55807405  1
  H  H258  1  0.30867171  0.66317372  0.69486275  1
  H  H259  1  0.40821038  0.78284592  0.88900777  1
  C  C260  1  0.39689474  0.53153933  0.75733486  1
  O  O261  1  0.30240533  0.93032481  0.90063157  1
  N  N262  1  0.31929045  0.81469374  0.55563503  1
  O  O263  1  0.49166205  0.97713902  0.86164480  1
  C  C264  1  0.28193607  0.69197181  0.71749572  1
  N  N265  1  0.30614607  0.88142362  0.57582256  1
  Zn  Zn266  1  0.28341328  0.74892854  0.58443924  1
  C  C267  1  0.35712558  0.81561853  0.52051901  1
  C  C268  1  0.49294168  0.93723378  0.98213986  1
  H  H269  1  0.43755538  0.51991981  0.62473961  1
  O  O270  1  0.39777890  0.57802892  0.74186469  1
  C  C271  1  0.42632867  0.69836791  0.93745607  1
  O  O272  1  0.30609265  0.62652903  0.86234284  1
  H  H273  1  0.34404219  0.95614117  0.55269575  1
  C  C274  1  0.28791173  0.94699057  0.78237709  1
  C  C275  1  0.30109824  0.64565123  0.51406115  1
  C  C276  1  0.36841710  0.87221932  0.51245103  1
  C  C277  1  0.33960920  0.91081704  0.54823207  1
  C  C278  1  0.25258723  0.90503134  0.77934245  1
  N  N279  1  0.46566989  0.53422255  0.93583119  1
  C  C280  1  0.49578338  0.94763822  0.90775865  1
  C  C281  1  0.26006058  0.68822636  0.78436649  1
  N  N282  1  0.26646820  0.73117773  0.68220762  1
  N  N283  1  0.47062194  0.77360515  0.94097935  1
  C  C284  1  0.30995704  0.95716432  0.84957329  1
  O  O285  1  0.33339051  0.50726255  0.97226970  1
  C  C286  1  0.30243873  0.97575794  0.72513214  1
  O  O287  1  0.36141000  0.51612258  0.82046648  1
  Zn  Zn288  1  0.40277515  0.52107951  0.89491867  1
  C  C289  1  0.49981064  0.50029166  0.92766177  1
  O  O290  1  0.34224409  0.99365776  0.85068154  1
  Zn  Zn291  1  0.46975984  0.59932784  0.99741700  1
  H  H292  1  0.37690212  0.78066638  0.50193314  1
  H  H293  1  0.32718523  0.61193467  0.50957837  1
  C  C294  1  0.62263901  0.07925052  0.21569946  1
  H  H295  1  0.65684522  0.12316753  0.30621629  1
  H  H296  1  0.62104545  0.04173562  0.10848790  1
  C  C297  1  0.65525070  0.11164205  0.25406750  1
  C  C298  1  0.63749652  0.06940686  0.14781999  1
  Zn  Zn299  1  0.71698521  0.10219623  0.06063028  1
  O  O300  1  0.73832756  0.22353712  0.40670861  1
  N  N301  1  0.67441058  0.09657518  0.13932173  1
  O  O302  1  0.57944877  0.06168704  0.31358613  1
  C  C303  1  0.58330141  0.05394494  0.25078282  1
  Zn  Zn304  1  0.74433213  0.16781759  0.23687380  1
  O  O305  1  0.65113197  0.46736971  0.44720453  1
  N  N306  1  0.71195300  0.17578651  0.02219864  1
  N  N307  1  0.68795206  0.12643394  0.21435811  1
  O  O308  1  0.54574530  0.07632829  0.46856633  1
  O  O309  1  0.55418031  0.02683415  0.21759975  1
  C  C310  1  0.50863436  0.10102750  0.47620563  1
  Zn  Zn311  1  0.56154407  0.00430065  0.39965270  1
  C  C312  1  0.73376173  0.17583754  0.40324782  1
  H  H313  1  0.73977931  0.28137375  0.32253480  1
  O  O314  1  0.72777758  0.12890546  0.39869978  1
  N  N315  1  0.74996189  0.24621712  0.22717283  1
  O  O316  1  0.70331223  0.41186125  0.49223772  1
  C  C317  1  0.66164431  0.42621695  0.48165071  1
  H  H318  1  0.56484809  0.45383475  0.47926141  1
  H  H319  1  0.66632322  0.26331243  0.90717706  1
  H  H320  1  0.69402358  0.00606927  0.73372164  1
  N  N321  1  0.54914554  0.38999819  0.54526236  1
  N  N322  1  0.58119708  0.33685523  0.58088264  1
  C  C323  1  0.53877564  0.24828058  0.77422726  1
  C  C324  1  0.62379717  0.39526570  0.51756314  1
  N  N325  1  0.52263216  0.27796127  0.72401643  1
  O  O326  1  0.56484172  0.21564393  0.89725089  1
  O  O327  1  0.63184707  0.17861077  0.86567486  1
  C  C328  1  0.59091489  0.20219220  0.85092326  1
  H  H329  1  0.65613297  0.19590343  0.75042539  1
  C  C330  1  0.62228007  0.21455466  0.73984736  1
  C  C331  1  0.58381484  0.22131171  0.78164802  1
  N  N332  1  0.61602431  0.23195079  0.67673872  1
  O  O333  1  0.64743847  0.22389116  0.63330770  1
  H  H334  1  0.74483904  0.02982116  0.89161364  1
  Zn  Zn335  1  0.55938695  0.27243680  0.63727071  1
  Zn  Zn336  1  0.64992682  0.11174125  0.92424579  1
  C  C337  1  0.62264694  0.34513607  0.55510604  1
  C  C338  1  0.50156693  0.15288365  0.51222610  1
  H  H339  1  0.51243149  0.25143528  0.81481769  1
  C  C340  1  0.68713500  0.18542289  0.97081638  1
  N  N341  1  0.52406412  0.21856919  0.57747689  1
  H  H342  1  0.65261431  0.31846957  0.56667310  1
  C  C343  1  0.68572579  0.24090004  0.94943853  1
  N  N344  1  0.71159618  0.07039985  0.96714264  1
  O  O345  1  0.64511083  0.03503286  0.85301414  1
  H  H346  1  0.57941026  0.16663821  0.54117309  1
  C  C347  1  0.54022635  0.17930222  0.54351787  1
  C  C348  1  0.67123102  0.42900929  0.95706977  1
  C  C349  1  0.57753455  0.41683723  0.50778905  1
  H  H350  1  0.53242337  0.44100036  0.90219038  1
  C  C351  1  0.74470540  0.04147378  0.94509492  1
  O  O352  1  0.63147098  0.43803407  0.96267066  1
  O  O353  1  0.68830186  0.02698832  0.60773431  1
  C  C354  1  0.72341815  0.43915680  0.96324805  1
  C  C355  1  0.72983768  0.03004035  0.60710412  1
  Zn  Zn356  1  0.71358016  0.35441740  0.97638869  1
  N  N357  1  0.71182265  0.27191102  0.98772306  1
  O  O358  1  0.65460849  0.56066288  0.32751160  1
  O  O359  1  0.70254088  0.60419083  0.48075667  1
  H  H360  1  0.56722086  0.59715857  0.30075354  1
  C  C361  1  0.58805447  0.91985497  0.48312921  1
  C  C362  1  0.57988199  0.59064201  0.24544150  1
  N  N363  1  0.59378316  0.59536939  0.12569131  1
  N  N364  1  0.55790869  0.60450574  0.19327323  1
  H  H365  1  0.66381260  0.56676556  0.11583777  1
  O  O366  1  0.60696930  0.96236492  0.45642681  1
  C  C367  1  0.62587763  0.57317516  0.22232749  1
  Zn  Zn368  1  0.58010638  0.62197490  0.03011039  1
  C  C369  1  0.63190073  0.57474177  0.14914779  1
  O  O370  1  0.71798021  0.58099292  0.06257247  1
  Zn  Zn371  1  0.69705497  0.53336574  0.40856316  1
  C  C372  1  0.66487440  0.55553903  0.26391127  1
  O  O373  1  0.70618365  0.54396954  0.24452119  1
  H  H374  1  0.50382299  0.73869946  0.28173019  1
  O  O375  1  0.52763550  0.89715004  0.22641901  1
  O  O376  1  0.54627162  0.90718315  0.47036069  1
  C  C377  1  0.51984253  0.84858367  0.24766899  1
  C  C378  1  0.72972772  0.61410156  0.02285646  1
  N  N379  1  0.50638568  0.75716744  0.10392440  1
  C  C380  1  0.51105836  0.80614337  0.12713065  1
  H  H381  1  0.51916522  0.83912964  0.09299979  1
  O  O382  1  0.51997782  0.84078895  0.31209603  1
  Zn  Zn383  1  0.51103121  0.72670458  0.00216104  1
  C  C384  1  0.51133490  0.80526684  0.19943597  1
  C  C385  1  0.50169122  0.75163627  0.22729418  1
  O  O386  1  0.50282077  0.97582670  0.36293068  1
  H  H387  1  0.58110755  0.51553466  0.95587111  1
  C  C388  1  0.61072210  0.88475831  0.53328861  1
  C  C389  1  0.58690264  0.83411605  0.55151655  1
  H  H390  1  0.58086901  0.62034588  0.90189680  1
  O  O391  1  0.57082538  0.65848228  0.80224304  1
  O  O392  1  0.61337368  0.62466359  0.89113340  1
  Zn  Zn393  1  0.66625102  0.80085295  0.63946327  1
  C  C394  1  0.64912770  0.69557873  0.81267436  1
  C  C395  1  0.68197186  0.89159795  0.84421376  1
  C  C396  1  0.69259441  0.69204794  0.84534981  1
  H  H397  1  0.61307041  0.72465800  0.71569593  1
  C  C398  1  0.63985982  0.73181389  0.75371012  1
  N  N399  1  0.66870751  0.76699592  0.73124166  1
  C  C400  1  0.60683682  0.66413383  0.83224047  1
  H  H401  1  0.62552119  0.81468981  0.94125642  1
  O  O402  1  0.66481666  0.86936213  0.89727565  1
  N  N403  1  0.55674762  0.78652433  0.96437626  1
  N  N404  1  0.53529919  0.57368152  0.98382284  1
  C  C405  1  0.65673239  0.90282878  0.55659172  1
  N  N406  1  0.70640626  0.87105006  0.79517807  1
  N  N407  1  0.67990261  0.87879335  0.60406331  1
  C  C408  1  0.69741462  0.69864860  0.56307403  1
  H  H409  1  0.64784386  0.92646883  0.93017496  1
  H  H410  1  0.67350385  0.94272145  0.54180583  1
  N  N411  1  0.71282303  0.92242147  0.73907780  1
  C  C412  1  0.67541524  0.95149075  0.82486257  1
  N  N413  1  0.70870729  0.73703956  0.60236618  1
  N  N414  1  0.60506049  0.79889648  0.59312408  1
  C  C415  1  0.61408931  0.72411225  0.98074088  1
  Zn  Zn416  1  0.73688753  0.90800154  0.64533088  1
  C  C417  1  0.60183218  0.78115942  0.95950768  1
  C  C418  1  0.69573551  0.96743613  0.76294975  1
  H  H419  1  0.55119112  0.81797012  0.53436403  1
  O  O420  1  0.63268694  0.96688484  0.93088992  1
  Zn  Zn421  1  0.69986578  0.63624081  0.92100920  1
  C  C422  1  0.54364821  0.52814909  0.95461602  1
  Zn  Zn423  1  0.50825379  0.85655866  0.93617871  1
  H  H424  1  0.66209510  0.69366903  0.54013954  1
  N  N425  1  0.72552282  0.72786901  0.83906862  1
  Zn  Zn426  1  0.72696703  0.79125137  0.78177844  1
  C  C427  1  0.73893289  0.66575692  0.55412694  1
  H  H428  1  0.64862248  0.70133653  0.98480504  1
  C  C429  1  0.65118867  0.98687086  0.86948303  1
  C  C430  1  0.73885794  0.61576452  0.51536698  1
  N  N431  1  0.57952685  0.69420491  0.99612814  1
  N  N432  1  0.82754054  0.08995512  0.18775285  1
  C  C433  1  0.85353126  0.05399533  0.21415223  1
  C  C434  1  0.81452626  0.10279243  0.30263464  1
  N  N435  1  0.79760261  0.12440122  0.24926283  1
  C  C436  1  0.84797802  0.06056931  0.28604616  1
  H  H437  1  0.98594658  0.08756231  0.37372168  1
  C  C438  1  0.98528745  0.00613244  0.07744073  1
  Zn  Zn439  1  0.82187247  0.11675089  0.09228123  1
  N  N440  1  0.77817400  0.07038457  0.03967750  1
  H  H441  1  0.79933382  0.11161917  0.35184008  1
  C  C442  1  0.93816810  0.20372727  0.21503703  1
  O  O443  1  0.82449700  0.41330579  0.48295824  1
  C  C444  1  0.95996973  0.00113933  0.01297945  1
  C  C445  1  0.89287410  0.18319865  0.03055008  1
  O  O446  1  0.91280766  0.23367396  0.20242761  1
  O  O447  1  0.87898465  0.04633338  0.39646246  1
  O  O448  1  0.98359176  0.05531695  0.40285849  1
  N  N449  1  0.81608877  0.19475811  0.05772467  1
  Zn  Zn450  1  0.93591740  0.07282812  0.05755730  1
  C  C451  1  0.87656558  0.03053353  0.33505453  1
  N  N452  1  0.88528675  0.13762819  0.05594819  1
  Zn  Zn453  1  0.76210167  0.43209937  0.42861910  1
  C  C454  1  0.85109718  0.21775006  0.02789301  1
  Zn  Zn455  1  0.92435277  0.04625354  0.47799116  1
  H  H456  1  0.87867866  0.02952336  0.18152123  1
  Zn  Zn457  1  0.75380867  0.23556613  0.05980644  1
  Zn  Zn458  1  0.98161489  0.00928493  0.31145389  1
  O  O459  1  0.86591394  0.49119412  0.46830800  1
  H  H460  1  0.92840819  0.19348988  0.00810468  1
  C  C461  1  0.76597387  0.32855949  0.16257605  1
  H  H462  1  0.77184941  0.36074383  0.12244500  1
  O  O463  1  0.76891856  0.43542022  0.24289827  1
  N  N464  1  0.76089430  0.27555390  0.15096921  1
  C  C465  1  0.85961023  0.44586650  0.49645031  1
  H  H466  1  0.84416596  0.25797221  0.00569850  1
  C  C467  1  0.75906632  0.33730997  0.23369851  1
  C  C468  1  0.76250324  0.39066776  0.27156053  1
  C  C469  1  0.75023565  0.28705261  0.26755114  1
  O  O470  1  0.75825275  0.38790575  0.33327198  1
  O  O471  1  0.84703856  0.27298293  0.68273552  1
  H  H472  1  0.86359164  0.34336056  0.58075136  1
  O  O473  1  0.82974050  0.32431213  0.95614270  1
  C  C474  1  0.84834127  0.29896048  0.79216933  1
  N  N475  1  0.86805638  0.29257385  0.73302993  1
  N  N476  1  0.95190490  0.35065990  0.79346864  1
  C  C477  1  0.88910540  0.37720345  0.58520867  1
  Zn  Zn478  1  0.93611280  0.32052071  0.69852597  1
  H  H479  1  0.81108575  0.28442340  0.79361881  1
  C  C480  1  0.89090120  0.42746373  0.54796496  1
  C  C481  1  0.85173323  0.32557661  0.90561386  1
  C  C482  1  0.87672961  0.32588496  0.84448804  1
  C  C483  1  0.99096161  0.18890446  0.58849152  1
  H  H484  1  0.91858977  0.21152049  0.62098965  1
  N  N485  1  0.95490857  0.43409060  0.61137739  1
  N  N486  1  0.97280720  0.26632717  0.64486014  1
  C  C487  1  0.95607677  0.22249216  0.61838690  1
  C  C488  1  0.92585711  0.34821311  0.84593263  1
  C  C489  1  0.93041539  0.46207494  0.56622034  1
  N  N490  1  0.92292221  0.37572568  0.62822131  1
  H  H491  1  0.94206729  0.36818174  0.88960585  1
  C  C492  1  0.98419879  0.13765774  0.55047480  1
  O  O493  1  0.94439960  0.11824491  0.53518010  1
  O  O494  1  0.82780409  0.02290621  0.97302393  1
  O  O495  1  0.77067972  0.03661372  0.60542065  1
  O  O496  1  0.75618803  0.46533452  0.98358856  1
  C  C497  1  0.78861182  0.04169481  0.98677052  1
  N  N498  1  0.91436018  0.67216131  0.17300545  1
  C  C499  1  0.88140279  0.62527788  0.25422877  1
  N  N500  1  0.95602358  0.65565252  0.23465595  1
  Zn  Zn501  1  0.94725708  0.70973580  0.09322037  1
  H  H502  1  0.94403272  0.61026925  0.32473239  1
  C  C503  1  0.92920408  0.62829598  0.27788761  1
  C  C504  1  0.87406534  0.65206207  0.18904733  1
  C  C505  1  0.84558320  0.59978089  0.29617912  1
  H  H506  1  0.84175393  0.65565460  0.15723037  1
  N  N507  1  0.97208419  0.78400266  0.06932758  1
  C  C508  1  0.94726453  0.82403329  0.04719511  1
  Zn  Zn509  1  0.81180736  0.54276593  0.43356098  1
  Zn  Zn510  1  0.76880375  0.50971525  0.28561239  1
  O  O511  1  0.80499861  0.59143602  0.27251480  1
  O  O512  1  0.85600306  0.58526948  0.35622764  1
  O  O513  1  0.99574148  0.87305751  0.39976786  1
  O  O514  1  0.90647586  0.99738564  0.31228472  1
  O  O515  1  0.76090245  0.50684523  0.38945087  1
  C  C516  1  0.97853435  0.86884552  0.02630249  1
  N  N517  1  0.98562265  0.66738144  0.02977900  1
  H  H518  1  0.90836505  0.81989564  0.03292581  1
  N  N519  1  0.83331362  0.84187882  0.63002596  1
  O  O520  1  0.93886984  0.68734939  0.85580924  1
  Zn  Zn521  1  0.96357732  0.84384570  0.81101710  1
  O  O522  1  0.90049394  0.76360468  0.85613474  1
  N  N523  1  0.80538107  0.90299963  0.62165298  1
  C  C524  1  0.84536740  0.87017484  0.91934473  1
  C  C525  1  0.93030866  0.73256430  0.83583141  1
  O  O526  1  0.94891628  0.97872333  0.96297179  1
  H  H527  1  0.90118429  0.81727858  0.60397619  1
  O  O528  1  0.93024716  0.91783792  0.80193242  1
  Zn  Zn529  1  0.85295469  0.95847524  0.90052174  1
  H  H530  1  0.82380907  0.97619445  0.57534136  1
  C  C531  1  0.87850548  0.90546421  0.58384639  1
  O  O532  1  0.95726409  0.90148309  0.55174126  1
  C  C533  1  0.84234766  0.87466374  0.84428218  1
  C  C534  1  0.87100647  0.92249531  0.80088857  1
  C  C535  1  0.96898537  0.63894696  0.97998765  1
  C  C536  1  0.83379248  0.93477357  0.59156745  1
  N  N537  1  0.76651647  0.72871528  0.62454406  1
  Zn  Zn538  1  0.80499868  0.77895007  0.67592659  1
  C  C539  1  0.82156647  0.83354659  0.79895457  1
  O  O540  1  0.85987465  0.95195540  0.75604900  1
  C  C541  1  0.87418015  0.84876111  0.60404747  1
  N  N542  1  0.79482646  0.80628854  0.77046209  1
  H  H543  1  0.93651770  0.93016581  0.76008496  1
  H  H544  1  0.92999994  0.63481127  0.97013220  1
  N  N545  1  0.84095138  0.83499703  0.96593049  1
  C  C546  1  0.77814848  0.68502800  0.59243764  1
  O  O547  1  0.79419617  0.68268046  0.98299166  1
  O  O548  1  0.97270536  0.75353870  0.72080968  1
  H  H549  1  0.81442099  0.66774330  0.59498048  1
  C  C550  1  0.92158014  0.93196145  0.56139756  1
  O  O551  1  0.92154219  0.98354477  0.55024022  1
  C  C552  1  0.97622206  0.75623046  0.78957814  1
  C  C553  1  0.75963859  0.65634113  0.98987934  1
  H  H554  1  0.83106917  0.79502944  0.95021662  1
  O  O555  1  0.99281601  0.74606114  0.61141993  1
  H  H556  1  0.75810083  0.73611965  0.86541763  1
  H  H557  1  0.94154026  0.50013323  0.54060101  1
  O  O558  1  0.77680996  0.58981938  0.50694981  1
  H  H559  1  0.97114257  0.90749082  0.99995780  1
