# generated using pymatgen
data_ZnHC4O3
_symmetry_space_group_name_H-M   'P 1'
_cell_length_a   31.38074749
_cell_length_b   12.41848295
_cell_length_c   13.95628236
_cell_angle_alpha   90.00000000
_cell_angle_beta   90.00000000
_cell_angle_gamma   90.00000000
_symmetry_Int_Tables_number   1
_chemical_formula_structural   ZnHC4O3
_chemical_formula_sum   'Zn36 H36 C144 O108'
_cell_volume   5438.78106725
_cell_formula_units_Z   36
loop_
 _symmetry_equiv_pos_site_id
 _symmetry_equiv_pos_as_xyz
  1  'x, y, z'
loop_
 _atom_site_type_symbol
 _atom_site_label
 _atom_site_symmetry_multiplicity
 _atom_site_fract_x
 _atom_site_fract_y
 _atom_site_fract_z
 _atom_site_occupancy
  C  C0  1  0.07420304  0.17017860  0.04423895  1
  O  O1  1  0.09114951  0.22892928  0.43426350  1
  C  C2  1  0.24676294  0.19674235  0.25144167  1
  C  C3  1  0.11215449  0.31132221  0.42852028  1
  C  C4  1  0.21250500  0.01974807  0.15409497  1
  O  O5  1  0.03234900  0.25406156  0.21832593  1
  C  C6  1  0.02781805  0.19454113  0.05359222  1
  H  H7  1  0.16271162  0.12704818  0.11261137  1
  O  O8  1  0.18621723  0.30117483  0.20448388  1
  C  C9  1  0.19120350  0.11713018  0.15466175  1
  Zn  Zn10  1  0.18985744  0.43415112  0.32543323  1
  Zn  Zn11  1  0.10598660  0.31298824  0.20435523  1
  O  O12  1  0.09642903  0.19031439  0.11441465  1
  O  O13  1  0.12640651  0.35189389  0.34658274  1
  O  O14  1  0.03116860  0.04125049  0.41412038  1
  C  C15  1  0.20616383  0.21131257  0.20536260  1
  O  O16  1  0.08950989  0.47388946  0.15169575  1
  Zn  Zn17  1  0.01595266  0.22840214  0.36944916  1
  C  C18  1  0.00993137  0.23584997  0.14127190  1
  H  H19  1  0.15547934  0.40728715  0.00457615  1
  C  C20  1  0.09600601  0.49672983  0.06922737  1
  O  O21  1  0.18219612  0.45867917  0.47323182  1
  C  C22  1  0.13973717  0.48799584  0.00742264  1
  Zn  Zn23  1  0.14584179  0.03899525  0.92840013  1
  O  O24  1  0.17178393  0.19626729  0.88571065  1
  O  O25  1  0.11960088  0.03206883  0.64423487  1
  C  C26  1  0.20372708  0.09728927  0.63431652  1
  H  H27  1  0.07356408  0.26853676  0.59424938  1
  C  C28  1  0.12318449  0.36135100  0.51992385  1
  H  H29  1  0.02372843  0.15859552  0.90968220  1
  C  C30  1  0.14334047  0.01697478  0.71329576  1
  O  O31  1  0.20679417  0.22027124  0.93173197  1
  C  C32  1  0.09477931  0.34165370  0.60009645  1
  C  C33  1  0.19030461  0.04332268  0.71390500  1
  C  C34  1  0.24475474  0.14030269  0.60939993  1
  H  H35  1  0.17513370  0.11092760  0.59261791  1
  C  C36  1  0.07760787  0.43303166  0.67470593  1
  C  C37  1  0.22119138  0.01092446  0.78547941  1
  O  O38  1  0.06340523  0.40704427  0.75837055  1
  Zn  Zn39  1  0.14619402  0.42493413  0.66064701  1
  Zn  Zn40  1  0.23859883  0.33803615  0.85937305  1
  O  O41  1  0.18691625  0.44100247  0.82655261  1
  O  O42  1  0.08918914  0.12756283  0.97202190  1
  C  C43  1  0.00698515  0.12321419  0.55975557  1
  C  C44  1  0.00591368  0.18137201  0.97267380  1
  C  C45  1  0.02627697  0.02871089  0.50190159  1
  C  C46  1  0.14671206  0.46202897  0.51239163  1
  O  O47  1  0.18660265  0.57401071  0.23848201  1
  C  C48  1  0.23096908  0.69807951  0.49578097  1
  C  C49  1  0.18245600  0.76660461  0.33603445  1
  C  C50  1  0.22013550  0.70729138  0.31493446  1
  O  O51  1  0.20833102  0.84525090  0.08821592  1
  C  C52  1  0.18953889  0.93822258  0.09864198  1
  Zn  Zn53  1  0.23016220  0.83874125  0.40489518  1
  O  O54  1  0.15428103  0.95894368  0.06056567  1
  O  O55  1  0.13682420  0.87203575  0.45236518  1
  H  H56  1  0.15718419  0.77138549  0.27721287  1
  Zn  Zn57  1  0.13457145  0.63864909  0.07356839  1
  C  C58  1  0.21850087  0.63803058  0.22810712  1
  C  C59  1  0.16308408  0.79944125  0.44598104  1
  C  C60  1  0.06645033  0.57209059  0.01325140  1
  C  C61  1  0.02080599  0.53461827  0.00634131  1
  Zn  Zn62  1  0.02321520  0.69139556  0.47110712  1
  O  O63  1  0.24061640  0.64769753  0.15495141  1
  C  C64  1  0.00892767  0.59882515  0.35596663  1
  O  O65  1  0.02543631  0.51948200  0.33597546  1
  O  O66  1  0.15428998  0.75567204  0.89991342  1
  C  C67  1  0.18155315  0.77996280  0.61867971  1
  O  O68  1  0.20875020  0.95362597  0.85581941  1
  C  C69  1  0.09264234  0.54223669  0.64168419  1
  Zn  Zn70  1  0.09279517  0.88328313  0.58141447  1
  H  H71  1  0.13206548  0.64074638  0.54788017  1
  C  C72  1  0.08468033  0.67103768  0.97290220  1
  C  C73  1  0.13429441  0.67394073  0.92739451  1
  H  H74  1  0.06267607  0.73250748  0.94479952  1
  O  O75  1  0.14366601  0.78413449  0.64893726  1
  C  C76  1  0.06789591  0.63696695  0.66605247  1
  C  C77  1  0.18562390  0.52868387  0.87104437  1
  O  O78  1  0.21152734  0.77530130  0.67727385  1
  O  O79  1  0.21378310  0.59855978  0.85800284  1
  C  C80  1  0.15346052  0.56812294  0.93935632  1
  O  O81  1  0.05499845  0.64942574  0.74694742  1
  Zn  Zn82  1  0.21467941  0.76812048  0.83311767  1
  O  O83  1  0.06318267  0.71579911  0.60380282  1
  C  C84  1  0.12348054  0.55800991  0.56692269  1
  Zn  Zn85  1  0.05105679  0.50169746  0.87559360  1
  C  C86  1  0.19456626  0.76559129  0.51719872  1
  O  O87  1  0.03247943  0.93749394  0.53681638  1
  H  H88  1  0.24911762  0.66208023  0.55752663  1
  O  O89  1  0.12544920  0.98328075  0.79210404  1
  C  C90  1  0.44864439  0.42889370  0.33975674  1
  H  H91  1  0.46564577  0.29328461  0.25996507  1
  C  C92  1  0.39944520  0.33321414  0.20646949  1
  C  C93  1  0.43615988  0.33190294  0.27606099  1
  O  O94  1  0.48169957  0.44508243  0.38077344  1
  C  C95  1  0.26815070  0.28368271  0.31284832  1
  O  O96  1  0.37255495  0.36610043  0.49541644  1
  H  H97  1  0.29693163  0.09152407  0.29141412  1
  O  O98  1  0.40439899  0.15851932  0.10904053  1
  C  C99  1  0.26648323  0.10066338  0.25473474  1
  Zn  Zn100  1  0.38972370  0.20848720  0.30396431  1
  C  C101  1  0.39066060  0.23908128  0.13880875  1
  O  O102  1  0.30266185  0.26219503  0.35482787  1
  O  O103  1  0.46884622  0.13449248  0.34362612  1
  Zn  Zn104  1  0.41476072  0.39624801  0.06817047  1
  O  O105  1  0.33444783  0.43947469  0.16569294  1
  C  C106  1  0.36854864  0.43985300  0.19866690  1
  C  C107  1  0.39325279  0.48975751  0.45314222  1
  C  C108  1  0.41222309  0.49683194  0.35618680  1
  O  O109  1  0.25552073  0.37706301  0.31691998  1
  C  C110  1  0.25127468  0.00120629  0.20960290  1
  O  O111  1  0.42531983  0.22467111  0.84379479  1
  O  O112  1  0.34626129  0.09699998  0.74157758  1
  O  O113  1  0.33863023  0.16514229  0.59726195  1
  O  O114  1  0.47326267  0.42834415  0.64255738  1
  C  C115  1  0.32208974  0.12391871  0.67224307  1
  O  O116  1  0.29751464  0.44099528  0.60723012  1
  O  O117  1  0.26584965  0.35382913  0.72467696  1
  Zn  Zn118  1  0.40910066  0.15347147  0.70283665  1
  O  O119  1  0.41684893  0.32676211  0.66919714  1
  O  O120  1  0.45570184  0.11245133  0.59232789  1
  C  C121  1  0.27552919  0.10693817  0.68319557  1
  C  C122  1  0.45263299  0.36688458  0.69580635  1
  C  C123  1  0.29294288  0.42181984  0.69249086  1
  C  C124  1  0.47686262  0.34116211  0.78456637  1
  O  O125  1  0.30025166  0.39135106  0.90724086  1
  H  H126  1  0.28730414  0.01247585  0.80833744  1
  C  C127  1  0.46139565  0.26729656  0.85842780  1
  C  C128  1  0.32569475  0.46454798  0.75942255  1
  H  H129  1  0.38351760  0.38005860  0.55626194  1
  C  C130  1  0.32699984  0.44805691  0.86227845  1
  C  C131  1  0.26333763  0.04823565  0.76066923  1
  C  C132  1  0.49127686  0.23136088  0.92955548  1
  C  C133  1  0.49440293  0.10108687  0.58657023  1
  H  H134  1  0.47889975  0.17107829  0.98192514  1
  O  O135  1  0.25113542  0.19050494  0.53226874  1
  Zn  Zn136  1  0.30793259  0.28535329  0.50934642  1
  H  H137  1  0.35946257  0.49664552  0.98714005  1
  H  H138  1  0.44014738  0.80551208  0.32718929  1
  Zn  Zn139  1  0.27261322  0.79813089  0.08830099  1
  H  H140  1  0.41710639  0.88436650  0.06827880  1
  H  H141  1  0.48083528  0.58330684  0.41429710  1
  O  O142  1  0.33907351  0.80607654  0.06900489  1
  O  O143  1  0.44311279  0.75229122  0.19691249  1
  O  O144  1  0.48500709  0.90672211  0.03282233  1
  C  C145  1  0.40159150  0.88105974  0.00066117  1
  Zn  Zn146  1  0.47343513  0.72623783  0.06348453  1
  C  C147  1  0.39330925  0.53235076  0.26724023  1
  C  C148  1  0.46065511  0.76571071  0.27212870  1
  O  O149  1  0.29005916  0.67273871  0.37786497  1
  O  O150  1  0.26849206  0.91186079  0.20953074  1
  Zn  Zn151  1  0.34994335  0.57507553  0.36202213  1
  H  H152  1  0.41011764  0.59746443  0.22632889  1
  C  C153  1  0.39481378  0.90723363  0.41326020  1
  O  O154  1  0.42412605  0.57604920  0.02510571  1
  O  O155  1  0.39573678  0.85525068  0.48313452  1
  C  C156  1  0.25081274  0.67730342  0.39171840  1
  O  O157  1  0.39519128  0.95688746  0.34428970  1
  O  O158  1  0.48901339  0.63354779  0.46590662  1
  O  O159  1  0.44712304  0.68338783  0.91643824  1
  Zn  Zn160  1  0.45780970  0.61523688  0.60765674  1
  O  O161  1  0.28899855  0.82356390  0.78718340  1
  C  C162  1  0.40933383  0.93461215  0.82932982  1
  C  C163  1  0.36625711  0.89511159  0.81786164  1
  C  C164  1  0.42368582  0.60754395  0.93630382  1
  H  H165  1  0.34842873  0.89776092  0.74906424  1
  C  C166  1  0.42542452  0.92111054  0.92485037  1
  C  C167  1  0.34464460  0.85551963  0.89568499  1
  O  O168  1  0.40903996  0.65595794  0.71573162  1
  C  C169  1  0.38585723  0.59347994  0.76263524  1
  O  O170  1  0.43084020  0.97287974  0.75930961  1
  C  C171  1  0.47030184  0.94997053  0.95965167  1
  C  C172  1  0.30166723  0.81359539  0.87131545  1
  C  C173  1  0.39026089  0.57246257  0.86577208  1
  O  O174  1  0.27620335  0.76631509  0.93141958  1
  C  C175  1  0.35250001  0.53404069  0.71446440  1
  H  H176  1  0.34597780  0.54671082  0.63536431  1
  O  O177  1  0.40085902  0.54992272  0.52272114  1
  Zn  Zn178  1  0.49882328  0.95124826  0.75681188  1
  C  C179  1  0.36140538  0.50713785  0.90840535  1
  O  O180  1  0.49704886  0.99777198  0.90734920  1
  C  C181  1  0.35817310  0.84548818  0.99748332  1
  O  O182  1  0.59039093  0.46232516  0.47437370  1
  C  C183  1  0.64653814  0.18299404  0.45864139  1
  O  O184  1  0.52843038  0.29903958  0.11925657  1
  C  C185  1  0.54341011  0.29978955  0.04389629  1
  C  C186  1  0.72919709  0.48177257  0.10911624  1
  O  O187  1  0.59175226  0.14945581  0.44870291  1
  Zn  Zn188  1  0.65454844  0.35510582  0.45491727  1
  Zn  Zn189  1  0.52635292  0.30934573  0.44537548  1
  C  C190  1  0.68192171  0.13170950  0.37926255  1
  C  C191  1  0.72917832  0.11925348  0.39494319  1
  H  H192  1  0.73184729  0.33497818  0.03907465  1
  H  H193  1  0.66550765  0.09605612  0.31696489  1
  C  C194  1  0.71813337  0.41490390  0.03424212  1
  C  C195  1  0.50027919  0.13508116  0.39134735  1
  C  C196  1  0.74883728  0.04371727  0.32392025  1
  C  C197  1  0.74937856  0.14667887  0.49376521  1
  Zn  Zn198  1  0.74670161  0.19950671  0.26353359  1
  O  O199  1  0.59764664  0.01103010  0.21833162  1
  O  O200  1  0.62531633  0.05812603  0.16638811  1
  C  C201  1  0.51718585  0.13897330  0.49225973  1
  O  O202  1  0.61659902  0.31099110  0.65225155  1
  H  H203  1  0.53253903  0.42866494  0.73479024  1
  C  C204  1  0.63871625  0.23006037  0.64952222  1
  C  C205  1  0.69663358  0.01258808  0.87610374  1
  C  C206  1  0.56417536  0.16738614  0.51127246  1
  C  C207  1  0.54550437  0.35798580  0.87198484  1
  C  C208  1  0.71279855  0.19484450  0.56706655  1
  O  O209  1  0.58085395  0.39977891  0.88572742  1
  C  C210  1  0.65198909  0.03025293  0.90339768  1
  H  H211  1  0.72883089  0.22530120  0.63337059  1
  H  H212  1  0.57541369  0.17621113  0.58853968  1
  O  O213  1  0.68115299  0.38081756  0.88854630  1
  C  C214  1  0.53002301  0.27807251  0.94564086  1
  O  O215  1  0.64471444  0.11251643  0.96076121  1
  Zn  Zn216  1  0.63103008  0.41368952  0.78224503  1
  O  O217  1  0.63668226  0.15441364  0.70135919  1
  C  C218  1  0.51806646  0.37619232  0.79044494  1
  C  C219  1  0.66816663  0.21479965  0.55094853  1
  O  O220  1  0.51698887  0.06756362  0.65759937  1
  C  C221  1  0.72454428  0.09348994  0.89854786  1
  C  C222  1  0.69063803  0.44471235  0.95611465  1
  Zn  Zn223  1  0.68719202  0.05471157  0.51156400  1
  H  H224  1  0.70787121  0.16085557  0.93595919  1
  Zn  Zn225  1  0.58730647  0.19094471  0.98281522  1
  C  C226  1  0.68407665  0.62098917  0.03125132  1
  C  C227  1  0.71360016  0.59152698  0.10429020  1
  O  O228  1  0.72404794  0.65465688  0.17025681  1
  C  C229  1  0.51676304  0.73102706  0.40035686  1
  C  C230  1  0.52975954  0.69273416  0.22042473  1
  Zn  Zn231  1  0.57422460  0.67758520  0.32717060  1
  O  O232  1  0.52509679  0.80291070  0.45292757  1
  C  C233  1  0.66736243  0.59631098  0.42669133  1
  Zn  Zn234  1  0.51744494  0.97251934  0.43395224  1
  H  H235  1  0.66953464  0.70414319  0.03402482  1
  O  O236  1  0.69424562  0.66621396  0.40119514  1
  O  O237  1  0.53394577  0.67622561  0.13600012  1
  Zn  Zn238  1  0.74859404  0.62295974  0.31023944  1
  C  C239  1  0.63309486  0.62449465  0.49166355  1
  C  C240  1  0.50332456  0.73106169  0.29552251  1
  O  O241  1  0.67146054  0.50250654  0.39319497  1
  O  O242  1  0.62308388  0.68690749  0.90187565  1
  C  C243  1  0.64569703  0.60788665  0.88067077  1
  C  C244  1  0.71011233  0.91431009  0.82773864  1
  O  O245  1  0.68443519  0.84152871  0.80223805  1
  O  O246  1  0.64169145  0.57184895  0.79381735  1
  C  C247  1  0.56812239  0.60194474  0.57956055  1
  C  C248  1  0.64232638  0.71812296  0.53653816  1
  C  C249  1  0.53928564  0.73316298  0.68744461  1
  C  C250  1  0.61187865  0.76380912  0.60433624  1
  C  C251  1  0.67491478  0.55499445  0.95522231  1
  Zn  Zn252  1  0.61676452  0.81978503  0.80830803  1
  H  H253  1  0.54014245  0.55472664  0.60328137  1
  O  O254  1  0.54150961  0.81860561  0.74083635  1
  C  C255  1  0.57330356  0.70238059  0.62310847  1
  O  O256  1  0.61699260  0.84698487  0.65313091  1
  C  C257  1  0.59565037  0.55396991  0.51072240  1
  O  O258  1  0.50768903  0.67134983  0.69623021  1
  H  H259  1  0.67233676  0.75733275  0.52475169  1
  O  O260  1  0.62062926  0.97525238  0.87831195  1
  C  C261  1  0.96415208  0.24894107  0.14015826  1
  O  O262  1  0.76678811  0.47615161  0.26201635  1
  O  O263  1  0.86855031  0.26530684  0.01444046  1
  O  O264  1  0.88362940  0.27757703  0.16415269  1
  H  H265  1  0.94696777  0.28054514  0.20502928  1
  O  O266  1  0.88774583  0.01272406  0.44563071  1
  C  C267  1  0.94173624  0.23534107  0.05757416  1
  C  C268  1  0.89577528  0.26279123  0.08034329  1
  O  O269  1  0.83566050  0.29383766  0.47652590  1
  C  C270  1  0.75330366  0.42999539  0.18548302  1
  O  O271  1  0.76094875  0.32893150  0.16841595  1
  H  H272  1  0.81275793  0.47887875  0.41126579  1
  C  C273  1  0.81896863  0.47832386  0.48687847  1
  O  O274  1  0.99403805  0.48633361  0.04236887  1
  C  C275  1  0.99839493  0.22362566  0.51164986  1
  C  C276  1  0.83884151  0.38175731  0.62842092  1
  O  O277  1  0.87156480  0.20233334  0.63526786  1
  Zn  Zn278  1  0.86544509  0.18409543  0.88128777  1
  C  C279  1  0.99721988  0.11878948  0.66133196  1
  O  O280  1  0.93740264  0.20477704  0.89435863  1
  O  O281  1  0.86202235  0.30080391  0.76667701  1
  O  O282  1  0.79416366  0.16593070  0.90497134  1
  C  C283  1  0.85901520  0.28781509  0.67671979  1
  C  C284  1  0.97878807  0.33081096  0.51317359  1
  Zn  Zn285  1  0.97104122  0.27371987  0.65792092  1
  C  C286  1  0.76953420  0.09338120  0.88385268  1
  O  O287  1  0.85890951  0.01621783  0.85627117  1
  C  C288  1  0.95858922  0.41147118  0.56540914  1
  C  C289  1  0.94251012  0.44932332  0.65529711  1
  C  C290  1  0.96024469  0.20645500  0.96720307  1
  C  C291  1  0.82870393  0.46943335  0.68213112  1
  C  C292  1  0.83445292  0.37573434  0.52542167  1
  O  O293  1  0.99339836  0.06381356  0.73023368  1
  H  H294  1  0.83368474  0.46357689  0.76273415  1
  O  O295  1  0.77858686  0.09051890  0.52427480  1
  Zn  Zn296  1  0.84569554  0.12252075  0.52244620  1
  C  C297  1  0.97132898  0.66655715  0.37580161  1
  Zn  Zn298  1  0.89563124  0.69871864  0.37248337  1
  O  O299  1  0.80111477  0.66608620  0.38962175  1
  H  H300  1  0.92306888  0.92268921  0.32984313  1
  C  C301  1  0.92904672  0.84529008  0.36425554  1
  C  C302  1  0.96033151  0.76091449  0.30432933  1
  C  C303  1  0.94617444  0.64501129  0.46615459  1
  C  C304  1  0.90895511  0.83216854  0.45587453  1
  O  O305  1  0.96147194  0.75591078  0.21883808  1
  C  C306  1  0.80046002  0.66765762  0.47905197  1
  C  C307  1  0.88895268  0.93157568  0.49683507  1
  O  O308  1  0.75338004  0.95984210  0.28873258  1
  H  H309  1  0.94301464  0.55867449  0.49019195  1
  C  C310  1  0.82869064  0.96173430  0.82154168  1
  O  O311  1  0.83755631  0.86975356  0.78481314  1
  O  O312  1  0.80372082  0.65138404  0.68923940  1
  O  O313  1  0.79254285  0.75379886  0.52749324  1
  Zn  Zn314  1  0.83785125  0.79961512  0.64305701  1
  O  O315  1  0.89097949  0.70967400  0.58377734  1
  O  O316  1  0.86770891  0.93689735  0.57538076  1
  C  C317  1  0.80992532  0.56876539  0.53614764  1
  C  C318  1  0.81195065  0.56788551  0.64131662  1
  H  H319  1  0.76916943  0.83276444  0.78211883  1
  C  C320  1  0.91446166  0.73963083  0.51665486  1
  O  O321  1  0.92943336  0.50517218  0.71581945  1
  C  C322  1  0.75619533  0.90835338  0.81414932  1
  C  C323  1  0.78373816  0.98798813  0.84186486  1
