# generated using pymatgen
data_CuH7C13NO4
_symmetry_space_group_name_H-M   'P 1'
_cell_length_a   24.80226289
_cell_length_b   12.22196275
_cell_length_c   15.35947702
_cell_angle_alpha   90.00000000
_cell_angle_beta   90.00000000
_cell_angle_gamma   90.00000000
_symmetry_Int_Tables_number   1
_chemical_formula_structural   CuH7C13NO4
_chemical_formula_sum   'Cu16 H112 C208 N16 O64'
_cell_volume   4655.95410620
_cell_formula_units_Z   16
loop_
 _symmetry_equiv_pos_site_id
 _symmetry_equiv_pos_as_xyz
  1  'x, y, z'
loop_
 _atom_site_type_symbol
 _atom_site_label
 _atom_site_symmetry_multiplicity
 _atom_site_fract_x
 _atom_site_fract_y
 _atom_site_fract_z
 _atom_site_occupancy
  H  H0  1  0.10917006  0.27810288  0.31986824  1
  H  H1  1  0.01767782  0.48141653  0.03453545  1
  C  C2  1  0.05539689  0.14793013  0.27894780  1
  C  C3  1  0.02457292  0.15521403  0.12867587  1
  C  C4  1  0.20099559  0.21415250  0.09655315  1
  O  O5  1  0.23925721  0.01905875  0.30149637  1
  C  C6  1  0.08676363  0.29038009  0.18576161  1
  C  C7  1  0.05072883  0.10365896  0.37084232  1
  C  C8  1  0.11342900  0.39761503  0.16977501  1
  O  O9  1  0.08265946  0.12828061  0.42676178  1
  C  C10  1  0.18813895  0.04464844  0.17264967  1
  C  C11  1  0.08844861  0.23910182  0.26767226  1
  C  C12  1  0.02618268  0.10063637  0.21110233  1
  C  C13  1  0.05575453  0.25026076  0.11444170  1
  C  C14  1  0.13997637  0.07161133  0.03930086  1
  O  O15  1  0.13947373  0.43778852  0.22743096  1
  C  C16  1  0.21499401  0.14655713  0.16613264  1
  C  C17  1  0.16160141  0.17796252  0.03607614  1
  H  H18  1  0.02624469  0.39630591  0.19337678  1
  O  O19  1  0.01222402  0.03702893  0.38476290  1
  H  H20  1  0.05632532  0.29328227  0.05097540  1
  C  C21  1  0.22224255  0.32473315  0.07947642  1
  O  O22  1  0.10586266  0.45135496  0.09576802  1
  C  C23  1  0.15101418  0.00277694  0.11317516  1
  H  H24  1  0.24721704  0.16965433  0.21439737  1
  C  C25  1  0.00109794  0.46791309  0.21402244  1
  H  H26  1  0.05774137  0.47338028  0.32205424  1
  H  H27  1  0.12312578  0.46853891  0.48924372  1
  O  O28  1  0.20115350  0.37322683  0.01654168  1
  C  C29  1  0.07827838  0.32407715  0.58637942  1
  H  H30  1  0.14689660  0.20451723  0.75151907  1
  C  C31  1  0.17551330  0.22396554  0.69692967  1
  C  C32  1  0.04325945  0.05688866  0.85270752  1
  C  C33  1  0.00193405  0.39802194  0.87136619  1
  O  O34  1  0.05176047  0.39595872  0.89407778  1
  C  C35  1  0.19501926  0.13715104  0.64500753  1
  O  O36  1  0.15104030  0.39332810  0.80591522  1
  C  C37  1  0.22563003  0.16565073  0.57206751  1
  C  C38  1  0.18086702  0.01735267  0.65260651  1
  C  C39  1  0.07919424  0.09816208  0.91259166  1
  C  C40  1  0.19191191  0.32931425  0.67978521  1
  C  C41  1  0.22546043  0.36386541  0.61117665  1
  C  C42  1  0.17446454  0.42062076  0.73629464  1
  C  C43  1  0.10603402  0.02226333  0.97015550  1
  H  H44  1  0.08697214  0.18855699  0.91867667  1
  H  H45  1  0.11751386  0.01757639  0.74813488  1
  H  H46  1  0.15407234  0.22370872  0.97191398  1
  C  C47  1  0.24169389  0.27257270  0.56242242  1
  H  H48  1  0.24185519  0.44601676  0.60285731  1
  N  N49  1  0.01826556  0.17887589  0.62776594  1
  C  C50  1  0.03587517  0.39756677  0.57003426  1
  H  H51  1  0.10009018  0.15495328  0.61694810  1
  C  C52  1  0.06693664  0.21673374  0.61166692  1
  H  H53  1  0.02265462  0.11204407  0.80655559  1
  Cu  Cu54  1  0.11121216  0.49520674  0.86577757  1
  H  H55  1  0.12099279  0.35032301  0.57570618  1
  H  H56  1  0.23564922  0.10412577  0.52189691  1
  O  O57  1  0.19046985  0.88175256  0.26045379  1
  Cu  Cu58  1  0.22394754  0.78279227  0.33638750  1
  O  O59  1  0.19463480  0.58606320  0.44137386  1
  C  C60  1  0.02887071  0.69910287  0.02995933  1
  H  H61  1  0.13199991  0.92141754  0.12487929  1
  C  C62  1  0.16490889  0.66158914  0.44976378  1
  H  H63  1  0.07240789  0.75199184  0.14590835  1
  O  O64  1  0.03256774  0.85049349  0.28116368  1
  C  C65  1  0.10977336  0.64534509  0.49012174  1
  C  C66  1  0.03343598  0.74896813  0.11208708  1
  Cu  Cu67  1  0.01514942  0.88334080  0.39405482  1
  Cu  Cu68  1  0.15869611  0.50773393  0.02234359  1
  O  O69  1  0.17411470  0.75734761  0.41673943  1
  O  O70  1  0.12057328  0.65042944  0.02945217  1
  C  C71  1  0.02238183  0.51065135  0.29246560  1
  H  H72  1  0.09117774  0.81300485  0.49456886  1
  C  C73  1  0.20849615  0.98119203  0.24992713  1
  H  H74  1  0.10852144  0.84609620  0.00771040  1
  C  C75  1  0.14934719  0.85266962  0.73102421  1
  O  O76  1  0.20101679  0.70668886  0.86419277  1
  C  C77  1  0.02435863  0.70719420  0.54077739  1
  O  O78  1  0.17818516  0.52278926  0.71907977  1
  H  H79  1  0.13226528  0.81402808  0.78850349  1
  O  O80  1  0.06897373  0.61190122  0.91514363  1
  C  C81  1  0.05660644  0.88069664  0.89667032  1
  H  H82  1  0.04332211  0.79503275  0.88557225  1
  N  N83  1  0.03347372  0.95177706  0.84072534  1
  N  N84  1  0.18810343  0.78889666  0.69877138  1
  C  C85  1  0.21748203  0.66616408  0.93629364  1
  C  C86  1  0.09197347  0.90878117  0.96425418  1
  C  C87  1  0.21452401  0.82904034  0.62934488  1
  C  C88  1  0.21460894  0.94072939  0.60696167  1
  O  O89  1  0.21335860  0.56488247  0.94970288  1
  C  C90  1  0.07542471  0.73032212  0.50664478  1
  H  H91  1  0.23775384  0.96787528  0.55238396  1
  Cu  Cu92  1  0.21864903  0.64651576  0.75819708  1
  C  C93  1  0.04569620  0.52005384  0.54823272  1
  O  O94  1  0.00080824  0.88636688  0.51638957  1
  H  H95  1  0.24020525  0.77101739  0.59354146  1
  C  C96  1  0.07718732  0.64866665  0.99078791  1
  C  C97  1  0.14340830  0.96414657  0.70908470  1
  C  C98  1  0.09502935  0.53531780  0.50688726  1
  H  H99  1  0.24631724  0.87897344  0.95535929  1
  H  H100  1  0.24274715  0.92889959  0.74273555  1
  C  C101  1  0.00739625  0.60276653  0.56510099  1
  H  H102  1  0.32588123  0.22167211  0.23523869  1
  N  N103  1  0.39642009  0.19004968  0.28238469  1
  Cu  Cu104  1  0.33773213  0.37753194  0.09242680  1
  H  H105  1  0.47290908  0.33101827  0.42702671  1
  O  O106  1  0.40585825  0.38262062  0.05112767  1
  O  O107  1  0.26245222  0.36199491  0.12236335  1
  H  H108  1  0.38926136  0.14301711  0.44930772  1
  H  H109  1  0.40164906  0.19341355  0.13212016  1
  C  C110  1  0.40036440  0.39918306  0.36177107  1
  N  N111  1  0.33626204  0.20834274  0.06927100  1
  H  H112  1  0.31910592  0.42335296  0.30136054  1
  C  C113  1  0.37155939  0.02205924  0.09407971  1
  C  C114  1  0.44070163  0.31771723  0.37844685  1
  C  C115  1  0.35520363  0.36900418  0.31279685  1
  C  C116  1  0.43478616  0.21893143  0.33497063  1
  H  H117  1  0.46048639  0.15048514  0.34568709  1
  C  C118  1  0.28250510  0.30221736  0.49037517  1
  C  C119  1  0.35571873  0.26187024  0.27563001  1
  C  C120  1  0.37319487  0.13808254  0.09807076  1
  O  O121  1  0.29795581  0.23574176  0.44262505  1
  C  C122  1  0.29724924  0.16887886  0.02050565  1
  H  H123  1  0.48674859  0.49250295  0.47368560  1
  O  O124  1  0.29485134  0.40646992  0.48366919  1
  C  C125  1  0.28795383  0.05727815  0.01810630  1
  H  H126  1  0.38872455  0.06940911  0.91755568  1
  C  C127  1  0.41158897  0.43706271  0.82146538  1
  H  H128  1  0.36484771  0.22374569  0.95272551  1
  O  O129  1  0.40189881  0.42253482  0.59007305  1
  N  N130  1  0.43483177  0.18519012  0.55711582  1
  H  H131  1  0.27403972  0.14425755  0.71964910  1
  H  H132  1  0.36227322  0.25719967  0.67073099  1
  C  C133  1  0.37409475  0.27753418  0.89598033  1
  C  C134  1  0.33583125  0.12575813  0.81478879  1
  C  C135  1  0.40076465  0.00514381  0.54476879  1
  C  C136  1  0.37426117  0.29326497  0.73441731  1
  C  C137  1  0.29179439  0.08942323  0.76667371  1
  C  C138  1  0.43954450  0.06900355  0.68219322  1
  C  C139  1  0.35770618  0.04652122  0.87358797  1
  C  C140  1  0.45253248  0.16384220  0.63684859  1
  C  C141  1  0.39789938  0.39674435  0.74014223  1
  C  C142  1  0.41865027  0.45367212  0.66506332  1
  H  H143  1  0.44756233  0.06469184  0.75195371  1
  C  C144  1  0.36385334  0.23834272  0.81274355  1
  H  H145  1  0.25088495  0.02794852  0.98375702  1
  C  C146  1  0.39887713  0.37975638  0.89852341  1
  C  C147  1  0.40752589  0.11003056  0.51072061  1
  H  H148  1  0.47402201  0.23784688  0.66435610  1
  C  C149  1  0.41722374  0.43189716  0.97959181  1
  H  H150  1  0.26980414  0.23435563  0.99584151  1
  Cu  Cu151  1  0.34821923  0.49465856  0.53417068  1
  Cu  Cu152  1  0.46467140  0.58003226  0.21489016  1
  Cu  Cu153  1  0.44976069  0.64796881  0.03753976  1
  H  H154  1  0.33575901  0.56052648  0.33053602  1
  H  H155  1  0.40542457  0.96517633  0.10878020  1
  C  C156  1  0.45158640  0.54486318  0.45449654  1
  C  C157  1  0.35999571  0.60564731  0.15795571  1
  C  C158  1  0.36852146  0.58473306  0.37681922  1
  C  C159  1  0.33759294  0.78992156  0.10778390  1
  H  H160  1  0.36662833  0.81973083  0.15474728  1
  H  H161  1  0.27738449  0.55281375  0.05669693  1
  C  C162  1  0.30639641  0.86150577  0.05297304  1
  O  O163  1  0.32669468  0.85987561  0.43381901  1
  H  H164  1  0.41740061  0.80964526  0.48813642  1
  C  C165  1  0.28479206  0.63991324  0.05450994  1
  C  C166  1  0.32809066  0.67952338  0.10423379  1
  C  C167  1  0.32675601  0.77163292  0.39908528  1
  O  O168  1  0.40076157  0.64586337  0.19504286  1
  C  C169  1  0.37082791  0.68903354  0.41640045  1
  O  O170  1  0.29356193  0.74194535  0.33799005  1
  C  C171  1  0.32248635  0.98090757  0.05913293  1
  C  C172  1  0.41436635  0.72682991  0.46346670  1
  C  C173  1  0.45478730  0.64966093  0.48510738  1
  C  C174  1  0.40892031  0.51266463  0.39894318  1
  O  O175  1  0.34440353  0.50762798  0.16555714  1
  Cu  Cu176  1  0.49786014  0.84197614  0.02194547  1
  N  N177  1  0.29449368  0.90782416  0.83156744  1
  H  H178  1  0.35296050  0.79909371  0.57775806  1
  H  H179  1  0.35128579  0.64198147  0.82716012  1
  H  H180  1  0.35149816  0.87915147  0.92313749  1
  C  C181  1  0.35358842  0.70742077  0.69449188  1
  O  O182  1  0.45072769  0.53305398  0.67475157  1
  C  C183  1  0.40582578  0.78448901  0.81195525  1
  O  O184  1  0.44998078  0.86377219  0.92868935  1
  C  C185  1  0.40250000  0.87453631  0.67515204  1
  C  C186  1  0.36923915  0.70251618  0.78146623  1
  H  H187  1  0.44551481  0.93938150  0.78984073  1
  O  O188  1  0.28443010  0.58076900  0.72560475  1
  O  O189  1  0.30813252  0.60019625  0.58845513  1
  C  C190  1  0.31473824  0.62279504  0.66745164  1
  C  C191  1  0.42148109  0.87126249  0.76186941  1
  C  C192  1  0.33754145  0.94109258  0.87531185  1
  C  C193  1  0.36914598  0.79082830  0.64190972  1
  O  O194  1  0.40290268  0.70984546  0.95529019  1
  C  C195  1  0.41992789  0.78333195  0.90297762  1
  H  H196  1  0.43108050  0.51582339  0.82682680  1
  O  O197  1  0.44818651  0.51297755  0.97617659  1
  H  H198  1  0.37153699  0.95527208  0.51039772  1
  C  C199  1  0.26673836  0.82106949  0.99591122  1
  C  C200  1  0.41906332  0.97896922  0.63227948  1
  C  C201  1  0.25633340  0.70879076  0.99949555  1
  C  C202  1  0.27286370  0.98020929  0.77858707  1
  O  O203  1  0.53989820  0.09596614  0.25598047  1
  H  H204  1  0.66603304  0.41810350  0.30049023  1
  C  C205  1  0.69309993  0.22871421  0.34166674  1
  C  C206  1  0.73801726  0.05869978  0.39186899  1
  C  C207  1  0.68747586  0.46417474  0.35262962  1
  C  C208  1  0.70438894  0.11648269  0.33440693  1
  C  C209  1  0.56978559  0.40020221  0.36814234  1
  C  C210  1  0.59572198  0.40986544  0.44648414  1
  O  O211  1  0.64493123  0.10564062  0.20039058  1
  H  H212  1  0.66351926  0.26636011  0.30115312  1
  C  C213  1  0.74155649  0.47261301  0.48430136  1
  O  O214  1  0.53794567  0.07657895  0.05704425  1
  Cu  Cu215  1  0.65857338  0.19615340  0.09753614  1
  O  O216  1  0.63519068  0.32401458  0.14726358  1
  O  O217  1  0.52102279  0.48413246  0.25308244  1
  C  C218  1  0.57170127  0.20688385  0.37990364  1
  H  H219  1  0.57266347  0.49597572  0.12761141  1
  C  C220  1  0.55296183  0.29900377  0.33498589  1
  C  C221  1  0.60101354  0.21219534  0.45486785  1
  C  C222  1  0.67249527  0.38835561  0.16505599  1
  O  O223  1  0.71914916  0.35096088  0.18195332  1
  C  C224  1  0.71583195  0.40690512  0.41810604  1
  H  H225  1  0.52902974  0.29003772  0.27284458  1
  Cu  Cu226  1  0.57899425  0.08720277  0.15262231  1
  C  C227  1  0.67664682  0.05110854  0.26424325  1
  C  C228  1  0.55986849  0.10088622  0.33539598  1
  O  O229  1  0.68694025  0.08785756  0.03243025  1
  C  C230  1  0.72146611  0.28583123  0.40680064  1
  O  O231  1  0.56771653  0.01938779  0.37642564  1
  C  C232  1  0.61275920  0.31635513  0.49598964  1
  H  H233  1  0.61204412  0.14115118  0.49317913  1
  C  C234  1  0.55583399  0.49864685  0.31560472  1
  H  H235  1  0.60765230  0.49469972  0.46458285  1
  C  C236  1  0.73425243  0.08501297  0.00013503  1
  C  C237  1  0.64692368  0.33403019  0.57544415  1
  C  C238  1  0.68928258  0.26305619  0.60605131  1
  H  H239  1  0.53455104  0.24395517  0.95882270  1
  O  O240  1  0.56158827  0.40874726  0.73014748  1
  C  C241  1  0.72393841  0.30082347  0.66923451  1
  C  C242  1  0.64861598  0.44199065  0.61338057  1
  H  H243  1  0.69438301  0.18532075  0.57798806  1
  C  C244  1  0.57296744  0.19955561  0.74671380  1
  C  C245  1  0.60860743  0.02122223  0.67761979  1
  H  H246  1  0.57498775  0.24567932  0.68451052  1
  N  N247  1  0.72675064  0.40207674  0.69974854  1
  C  C248  1  0.68966308  0.47559617  0.67094038  1
  C  C249  1  0.55157010  0.37148749  0.80900723  1
  C  C250  1  0.55651190  0.24959654  0.82446514  1
  C  C251  1  0.57834220  0.02976037  0.83249019  1
  C  C252  1  0.55937046  0.08924196  0.90761608  1
  C  C253  1  0.58605993  0.08880581  0.75448858  1
  O  O254  1  0.54358160  0.43163412  0.86791655  1
  C  C255  1  0.54865099  0.19989819  0.90314342  1
  H  H256  1  0.69001231  0.07221289  0.71127512  1
  C  C257  1  0.55042309  0.02726782  0.98991653  1
  C  C258  1  0.66485107  0.03246530  0.66159610  1
  H  H259  1  0.61468796  0.49534481  0.59707545  1
  C  C260  1  0.74197045  0.01341463  0.92505943  1
  O  O261  1  0.53611357  0.79372349  0.11378110  1
  C  C262  1  0.69329524  0.68871420  0.14782913  1
  C  C263  1  0.54448882  0.69015257  0.11387239  1
  C  C264  1  0.60161322  0.65355740  0.12249701  1
  N  N265  1  0.70706734  0.64280251  0.41788397  1
  C  C266  1  0.68560912  0.57851681  0.35701201  1
  H  H267  1  0.66914815  0.62988186  0.30478051  1
  C  C268  1  0.70548122  0.57930470  0.16610281  1
  H  H269  1  0.58900527  0.90618920  0.47356051  1
  O  O270  1  0.68572239  0.95534648  0.25351559  1
  O  O271  1  0.57397113  0.58443946  0.33906821  1
  C  C272  1  0.61027465  0.54310284  0.13377994  1
  H  H273  1  0.74222161  0.97116656  0.38893417  1
  H  H274  1  0.74222211  0.62054002  0.00248541  1
  H  H275  1  0.63563658  0.82111755  0.12652658  1
  C  C276  1  0.64358131  0.73354918  0.12542552  1
  C  C277  1  0.73429354  0.58476402  0.47854974  1
  H  H278  1  0.73633971  0.83782975  0.03156045  1
  H  H279  1  0.74652565  0.55338718  0.18473179  1
  C  C280  1  0.73887039  0.77226814  0.16477732  1
  O  O281  1  0.50744169  0.62448169  0.11299370  1
  C  C282  1  0.66145903  0.50620927  0.15617425  1
  H  H283  1  0.59515417  0.69433458  0.61677707  1
  C  C284  1  0.64554888  0.79462160  0.70832920  1
  Cu  Cu285  1  0.52919812  0.53031055  0.68047579  1
  H  H286  1  0.72623803  0.98179167  0.55663654  1
  H  H287  1  0.66007326  0.96344315  0.93520500  1
  N  N288  1  0.58004754  0.64871397  0.74045162  1
  C  C289  1  0.65601403  0.80267671  0.79898257  1
  O  O290  1  0.51668546  0.76194909  0.56081556  1
  C  C291  1  0.62308627  0.74536456  0.85869761  1
  C  C292  1  0.60916039  0.71121019  0.68360096  1
  C  C293  1  0.69791437  0.88451201  0.82457825  1
  O  O294  1  0.55406395  0.92561054  0.98695758  1
  H  H295  1  0.62740846  0.75040784  0.92827205  1
  H  H296  1  0.66517765  0.85124926  0.66043528  1
  C  C297  1  0.58690110  0.66654043  0.82769618  1
  H  H298  1  0.56247742  0.60821927  0.86502872  1
  O  O299  1  0.53438002  0.58554969  0.56686937  1
  C  C300  1  0.69674020  0.95639543  0.89615522  1
  H  H301  1  0.58548740  0.93893360  0.83236015  1
  N  N302  1  0.65813977  0.93953526  0.52078663  1
  C  C303  1  0.60592161  0.94558092  0.53240761  1
  C  C304  1  0.68418131  0.99227462  0.58332969  1
  H  H305  1  0.69526587  0.55265232  0.70079085  1
  H  H306  1  0.53709847  0.96554355  0.61341786  1
  C  C307  1  0.74728258  0.88190000  0.77661733  1
  C  C308  1  0.50404670  0.66994632  0.54239241  1
  C  C309  1  0.57990385  0.97089446  0.61200158  1
  C  C310  1  0.86016916  0.14262288  0.26683585  1
  C  C311  1  0.95674356  0.19869927  0.01025238  1
  C  C312  1  0.86746109  0.38444212  0.42686488  1
  O  O313  1  0.77085892  0.14543095  0.03113314  1
  C  C314  1  0.87656657  0.30890562  0.34976224  1
  C  C315  1  0.88490661  0.45011840  0.06623777  1
  H  H316  1  0.92232916  0.42556849  0.27958609  1
  C  C317  1  0.93851383  0.47595605  0.08292984  1
  H  H318  1  0.85314168  0.46911020  0.11203674  1
  H  H319  1  0.83653922  0.16127958  0.40232739  1
  H  H320  1  0.96630855  0.28748658  0.02109365  1
  C  C321  1  0.90357658  0.28056278  0.19540106  1
  C  C322  1  0.86582921  0.49526871  0.40344870  1
  C  C323  1  0.75864394  0.23126710  0.46242934  1
  N  N324  1  0.88439807  0.17773903  0.19469834  1
  C  C325  1  0.90274076  0.34288327  0.27163934  1
  C  C326  1  0.85774547  0.20022421  0.34796159  1
  H  H327  1  0.84929712  0.05544703  0.25038137  1
  O  O328  1  0.78159134  0.39007081  0.04429685  1
  C  C329  1  0.98849342  0.11806730  0.05355104  1
  C  C330  1  0.97688430  0.46138001  0.01807248  1
  C  C331  1  0.76311190  0.11810009  0.45668060  1
  C  C332  1  0.97524770  0.00897494  0.02771815  1
  Cu  Cu333  1  0.75218965  0.26819326  0.10652636  1
  H  H334  1  0.92416907  0.29513663  0.13531550  1
  H  H335  1  0.99936043  0.02800749  0.22193805  1
  O  O336  1  0.98829116  0.38656546  0.79550787  1
  H  H337  1  0.93912059  0.20370775  0.62469508  1
  O  O338  1  0.86013545  0.29115928  0.69029674  1
  Cu  Cu339  1  0.78096704  0.45061820  0.79673257  1
  C  C340  1  0.86285499  0.42832631  0.57794085  1
  C  C341  1  0.85741988  0.38440165  0.66989765  1
  C  C342  1  0.80904264  0.39464416  0.97584401  1
  C  C343  1  0.86523932  0.34876641  0.51381349  1
  C  C344  1  0.97730123  0.24530607  0.61537954  1
  O  O345  1  0.84233467  0.46101612  0.72436328  1
  H  H346  1  0.89126818  0.22635726  0.90805954  1
  C  C347  1  0.90557429  0.40498759  0.91812589  1
  H  H348  1  0.89332883  0.38302547  0.85056512  1
  O  O349  1  0.78995176  0.36763591  0.90265809  1
  H  H350  1  0.82508555  0.05627051  0.89679847  1
  O  O351  1  0.82116845  0.11835364  0.57446873  1
  H  H352  1  0.95037525  0.40677658  0.57382189  1
  C  C353  1  0.96011406  0.42234457  0.93711880  1
  H  H354  1  0.86469903  0.26331725  0.53108210  1
  C  C355  1  0.78987614  0.00717048  0.87911410  1
  N  N356  1  0.90126427  0.06826739  0.93542790  1
  C  C357  1  0.98466555  0.35240932  0.58265350  1
  C  C358  1  0.80327067  0.06219373  0.51755582  1
  H  H359  1  0.78108542  0.27812119  0.51117269  1
  C  C360  1  0.86750598  0.41264882  0.98428471  1
  H  H361  1  0.75666508  0.24815099  0.70086574  1
  C  C362  1  0.91615141  0.16981811  0.94977125  1
  H  H363  1  0.76370108  0.43064710  0.53973026  1
  N  N364  1  0.83207688  0.91205645  0.17555993  1
  C  C365  1  0.98760310  0.79212345  0.15017676  1
  C  C366  1  0.75536033  0.84423924  0.09840107  1
  C  C367  1  0.82178670  0.83723170  0.23655503  1
  C  C368  1  0.80064499  0.91349504  0.10659054  1
  C  C369  1  0.93368837  0.73360882  0.02868988  1
  O  O370  1  0.85124680  0.72538187  0.38554094  1
  H  H371  1  0.88628112  0.62196210  0.20063027  1
  C  C372  1  0.85222124  0.69488595  0.45809774  1
  C  C373  1  0.92433797  0.58990131  0.22575052  1
  C  C374  1  0.82945025  0.68020907  0.02363775  1
  C  C375  1  0.95616885  0.51738762  0.17459415  1
  H  H376  1  0.90404771  0.82239979  0.13932186  1
  H  H377  1  0.85660699  0.83685393  0.27982414  1
  C  C378  1  0.98784950  0.84447348  0.23847654  1
  H  H379  1  0.82655828  0.68760869  0.09609460  1
  C  C380  1  0.93810616  0.78741672  0.10813168  1
  O  O381  1  0.94556079  0.86957940  0.27020570  1
  H  H382  1  0.93389330  0.67727803  0.35616884  1
  C  C383  1  0.77498210  0.77132592  0.23579230  1
  C  C384  1  0.94853736  0.61489102  0.30783033  1
  H  H385  1  0.86687394  0.52024361  0.33597120  1
  H  H386  1  0.81883258  0.97295971  0.05923789  1
  H  H387  1  0.76710551  0.70652102  0.28564909  1
  C  C388  1  0.85988984  0.57122483  0.46865727  1
  H  H389  1  0.99677572  0.94231144  0.05950088  1
  N  N390  1  0.99625183  0.58914262  0.33824512  1
  O  O391  1  0.84308415  0.75365990  0.52644452  1
  Cu  Cu392  1  0.87518557  0.88187888  0.56268753  1
  O  O393  1  0.82273636  0.96539122  0.50785837  1
  N  N394  1  0.78249541  0.64885253  0.88959592  1
  H  H395  1  0.91313136  0.73072516  0.84893959  1
  C  C396  1  0.87956414  0.71327403  0.98424890  1
  C  C397  1  0.87760210  0.70829913  0.89113470  1
  C  C398  1  0.84246097  0.93787105  0.74896870  1
  H  H399  1  0.81395055  0.66871421  0.78586338  1
  C  C400  1  0.82781100  0.67618721  0.85405438  1
  H  H401  1  0.96596513  0.58887710  0.59022743  1
  H  H402  1  0.85169644  0.60141526  0.60465480  1
  O  O403  1  0.84320573  0.87499241  0.68133576  1
  C  C404  1  0.98064830  0.69059439  0.98654669  1
  C  C405  1  0.79132542  0.94262511  0.80540631  1
  O  O406  1  0.94125195  0.79147359  0.59083467  1
  O  O407  1  0.87844148  0.99763127  0.76864105  1
  H  H408  1  0.97635786  0.65272243  0.92189576  1
  H  H409  1  0.75066905  0.82645089  0.72218534  1
  C  C410  1  0.86041804  0.54008519  0.55496288  1
  C  C411  1  0.98515741  0.80055771  0.55393081  1
  C  C412  1  0.78288595  0.64825775  0.97716604  1
  H  H413  1  0.75309678  0.64711152  0.52188516  1
  C  C414  1  0.93069459  0.98967363  0.97435690  1
  H  H415  1  0.91506446  0.90600493  0.95653710  1
