# generated using pymatgen
data_Zn3H12(C9O4)4
_symmetry_space_group_name_H-M   'P 1'
_cell_length_a   22.10295774
_cell_length_b   19.30422311
_cell_length_c   26.73701956
_cell_angle_alpha   90.00000000
_cell_angle_beta   90.00000000
_cell_angle_gamma   90.00000000
_symmetry_Int_Tables_number   1
_chemical_formula_structural   Zn3H12(C9O4)4
_chemical_formula_sum   'Zn24 H96 C288 O128'
_cell_volume   11408.16293752
_cell_formula_units_Z   8
loop_
 _symmetry_equiv_pos_site_id
 _symmetry_equiv_pos_as_xyz
  1  'x, y, z'
loop_
 _atom_site_type_symbol
 _atom_site_label
 _atom_site_symmetry_multiplicity
 _atom_site_fract_x
 _atom_site_fract_y
 _atom_site_fract_z
 _atom_site_occupancy
  C  C0  1  0.36444718  0.12448385  0.06259606  1
  C  C1  1  0.17919477  0.46994525  0.11582658  1
  C  C2  1  0.20110742  0.14411701  0.08386423  1
  C  C3  1  0.30449774  0.13786745  0.08489521  1
  C  C4  1  0.19804545  0.16642188  0.13256754  1
  O  O5  1  0.08908002  0.16032042  0.08249179  1
  H  H6  1  0.30580007  0.41044168  0.03716593  1
  O  O7  1  0.41147748  0.14083956  0.10079609  1
  C  C8  1  0.24999554  0.20489032  0.21139069  1
  C  C9  1  0.30609691  0.16337612  0.13423080  1
  O  O10  1  0.12187821  0.38711308  0.15949353  1
  H  H11  1  0.15457287  0.17886711  0.14902609  1
  H  H12  1  0.34840943  0.17553135  0.15124599  1
  C  C13  1  0.12358661  0.42279666  0.12202812  1
  C  C14  1  0.25208255  0.12507682  0.05608742  1
  O  O15  1  0.37468648  0.10067102  0.02336178  1
  C  C16  1  0.25189097  0.17889694  0.15957208  1
  H  H17  1  0.24331168  0.02453275  0.11283284  1
  O  O18  1  0.13680763  0.11855931  0.01669494  1
  C  C19  1  0.13582752  0.14051126  0.06056851  1
  O  O20  1  0.28921636  0.47382885  0.24330911  1
  H  H21  1  0.20684588  0.42930087  0.18711412  1
  O  O22  1  0.08563512  0.41637453  0.08630318  1
  O  O23  1  0.45635795  0.45473338  0.24727555  1
  H  H24  1  0.44771933  0.12945816  0.07948824  1
  H  H25  1  0.25142368  0.10470020  0.01630048  1
  C  C26  1  0.21584714  0.46637654  0.15783106  1
  H  H27  1  0.07889864  0.43575661  0.01148548  1
  H  H28  1  0.07365100  0.00992046  0.07285879  1
  H  H29  1  0.38285304  0.00383949  0.08924051  1
  H  H30  1  0.25742133  0.01150521  0.20271611  1
  Zn  Zn31  1  0.00232935  0.47396614  0.09115072  1
  O  O32  1  0.12588973  0.42174101  0.40695557  1
  O  O33  1  0.11608305  0.42218293  0.32522603  1
  H  H34  1  0.18627701  0.03635513  0.44075005  1
  C  C35  1  0.17617506  0.33212105  0.35686703  1
  O  O36  1  0.39878739  0.31560377  0.36666034  1
  C  C37  1  0.38537452  0.19177723  0.46128780  1
  C  C38  1  0.19588483  0.30069982  0.40083097  1
  O  O39  1  0.24558830  0.22545297  0.48735226  1
  C  C40  1  0.36704910  0.05753441  0.45855371  1
  Zn  Zn41  1  0.31655812  0.13275718  0.41923912  1
  C  C42  1  0.40684216  0.11945908  0.45599351  1
  C  C43  1  0.13703013  0.39562833  0.36667361  1
  C  C44  1  0.31176907  0.03405355  0.44769711  1
  H  H45  1  0.17994753  0.32117807  0.43881227  1
  H  H46  1  0.27018475  0.16586622  0.34470894  1
  C  C47  1  0.40328273  0.32167947  0.41333764  1
  Zn  Zn48  1  0.38558755  0.40665322  0.33038399  1
  C  C49  1  0.23418811  0.24380825  0.39524518  1
  O  O50  1  0.40328640  0.38364766  0.42985950  1
  C  C51  1  0.22593205  0.25005353  0.30439321  1
  C  C52  1  0.25500884  0.21510935  0.44391700  1
  C  C53  1  0.24712910  0.21561788  0.34715065  1
  C  C54  1  0.19146939  0.31168154  0.30832682  1
  C  C55  1  0.40062887  0.26189502  0.44897474  1
  C  C56  1  0.43330503  0.49194961  0.29995147  1
  C  C57  1  0.30799137  0.49360369  0.30029740  1
  H  H58  1  0.45280765  0.11148475  0.46988253  1
  H  H59  1  0.17724940  0.34048410  0.27485668  1
  C  C60  1  0.24209753  0.22374767  0.25396772  1
  O  O61  1  0.30843598  0.04421438  0.30547782  1
  O  O62  1  0.07873682  0.00204830  0.44454876  1
  Zn  Zn63  1  0.35780228  0.41311789  0.49325586  1
  C  C64  1  0.40742907  0.24115330  0.49989905  1
  H  H65  1  0.49725725  0.45910182  0.25377424  1
  C  C66  1  0.28593444  0.40038302  0.55165660  1
  H  H67  1  0.40255768  0.19294881  0.62401731  1
  O  O68  1  0.38106757  0.13561970  0.57165550  1
  C  C69  1  0.24341429  0.35781837  0.57423098  1
  H  H70  1  0.24614860  0.29990844  0.56481406  1
  C  C71  1  0.09486077  0.30316967  0.61535512  1
  C  C72  1  0.39919939  0.19345936  0.58144461  1
  C  C73  1  0.05630895  0.24594871  0.63009039  1
  H  H74  1  0.10514290  0.41128113  0.59792860  1
  O  O75  1  0.19805855  0.36009410  0.60437749  1
  O  O76  1  0.44967477  0.31885681  0.61875897  1
  C  C77  1  0.15857263  0.29083706  0.60972219  1
  O  O78  1  0.18324631  0.23635543  0.61252970  1
  H  H79  1  0.07429303  0.19337417  0.63528186  1
  C  C80  1  0.31467846  0.46460875  0.54649910  1
  C  C81  1  0.44009186  0.31453194  0.57568659  1
  C  C82  1  0.07295470  0.37015809  0.60704741  1
  H  H83  1  0.47262633  0.40467581  0.57372222  1
  C  C84  1  0.41817209  0.25292098  0.55150196  1
  O  O85  1  0.45319087  0.38196042  0.54536469  1
  C  C86  1  0.00820136  0.37850510  0.61156459  1
  C  C87  1  0.23482429  0.43547170  0.97829221  1
  C  C88  1  0.12803301  0.47642681  0.94392473  1
  C  C89  1  0.07604154  0.46152310  0.97478572  1
  O  O90  1  0.19675846  0.01201764  0.87289668  1
  C  C91  1  0.18483496  0.45568802  0.96551452  1
  C  C92  1  0.02184422  0.47538695  0.95346039  1
  C  C93  1  0.14322662  0.02722657  0.87243486  1
  O  O94  1  0.09145087  0.04406814  0.87143576  1
  C  C95  1  0.29691972  0.41634118  0.99493023  1
  O  O96  1  0.34738045  0.42875932  0.98221759  1
  H  H97  1  0.06319257  0.77135454  0.22277833  1
  C  C98  1  0.12616136  0.61161911  0.16477624  1
  Zn  Zn99  1  0.40809253  0.88440513  0.17553415  1
  Zn  Zn100  1  0.47003749  0.62033719  0.01649034  1
  C  C101  1  0.21920133  0.98307250  0.18624342  1
  C  C102  1  0.11147884  0.83949302  0.02142541  1
  C  C103  1  0.17528479  0.63652973  0.19441467  1
  C  C104  1  0.16447629  0.94002703  0.05214660  1
  C  C105  1  0.18863456  0.93081781  0.21408785  1
  C  C106  1  0.39321398  0.95798418  0.11414729  1
  C  C107  1  0.10469041  0.90291573  0.04437526  1
  C  C108  1  0.21299128  0.98936512  0.13240670  1
  C  C109  1  0.14745825  0.69947397  0.10392823  1
  C  C110  1  0.19308935  0.72609457  0.13575626  1
  H  H111  1  0.13547057  0.72247151  0.06723178  1
  C  C112  1  0.05615666  0.62380051  0.09120400  1
  C  C113  1  0.44895696  0.84157735  0.09764825  1
  C  C114  1  0.18824389  0.59517907  0.23837250  1
  C  C115  1  0.11246220  0.64526736  0.12070877  1
  O  O116  1  0.34386149  0.55602907  0.20855607  1
  C  C117  1  0.27342146  0.93725510  0.01430358  1
  O  O118  1  0.22467921  0.80882030  0.07881522  1
  O  O119  1  0.04081714  0.65904799  0.05452765  1
  H  H120  1  0.10065679  0.56805837  0.17899133  1
  C  C121  1  0.33773834  0.91248075  0.12102498  1
  C  C122  1  0.19090247  0.50740346  0.07406592  1
  C  C123  1  0.22736266  0.78608698  0.11922404  1
  C  C124  1  0.31269067  0.86059944  0.14793075  1
  C  C125  1  0.21146215  0.69175648  0.18167258  1
  O  O126  1  0.27329486  0.81332493  0.16031009  1
  H  H127  1  0.24893212  0.70882630  0.20517203  1
  H  H128  1  0.41991019  0.82771772  0.06443197  1
  C  C129  1  0.26072786  0.58700843  0.02949778  1
  C  C130  1  0.28381416  0.54576856  0.11659846  1
  C  C131  1  0.17283678  0.95151418  0.10354489  1
  H  H132  1  0.29338399  0.91371992  0.04816959  1
  C  C133  1  0.26802649  0.50687198  0.15844153  1
  H  H134  1  0.32527240  0.57944203  0.11833145  1
  Zn  Zn135  1  0.11664036  0.90103425  0.15465881  1
  C  C136  1  0.15024753  0.87673644  0.22279923  1
  C  C137  1  0.45025227  0.91781192  0.11060927  1
  O  O138  1  0.49243307  0.80192089  0.10521063  1
  O  O139  1  0.02386269  0.57742371  0.10890459  1
  C  C140  1  0.04348731  0.92206599  0.05809305  1
  C  C141  1  0.24534035  0.54557280  0.07457478  1
  O  O142  1  0.42871667  0.69843810  0.18270217  1
  C  C143  1  0.21056393  0.95289207  0.00989049  1
  H  H144  1  0.16042121  0.50994780  0.04049362  1
  C  C145  1  0.30749545  0.51076268  0.20353557  1
  O  O146  1  0.03602968  0.98797538  0.08436651  1
  O  O147  1  0.01876628  0.66330891  0.23854743  1
  O  O148  1  0.40108954  0.90696377  0.00337816  1
  Zn  Zn149  1  0.03258495  0.78619952  0.00393182  1
  O  O150  1  0.35370910  0.72129274  0.24272007  1
  C  C151  1  0.39137331  0.71034314  0.21314112  1
  O  O152  1  0.22000962  0.70282501  0.39949559  1
  C  C153  1  0.00414072  0.72967242  0.42266055  1
  C  C154  1  0.21896365  0.76493354  0.38119889  1
  O  O155  1  0.25620139  0.80766715  0.39062762  1
  O  O156  1  0.43429912  0.88184299  0.41844251  1
  C  C157  1  0.23220708  0.58989843  0.27272850  1
  Zn  Zn158  1  0.19761750  0.66737847  0.47441099  1
  C  C159  1  0.07101874  0.68564951  0.49315039  1
  C  C160  1  0.13653290  0.71358432  0.32891497  1
  C  C161  1  0.26991406  0.97455785  0.45914035  1
  H  H162  1  0.14050902  0.66718790  0.35272683  1
  C  C163  1  0.45971473  0.87882796  0.45839354  1
  O  O164  1  0.06167431  0.60471648  0.29766861  1
  O  O165  1  0.11007547  0.66308999  0.46098319  1
  C  C166  1  0.25005600  0.86294738  0.49485697  1
  H  H167  1  0.41488860  0.56468840  0.39075812  1
  C  C168  1  0.17565908  0.77025914  0.33812649  1
  O  O169  1  0.48943630  0.72133249  0.33449144  1
  C  C170  1  0.31640321  0.58566570  0.39069929  1
  C  C171  1  0.25786363  0.56582860  0.36995081  1
  C  C172  1  0.29185730  0.91216887  0.48131684  1
  C  C173  1  0.09875870  0.71836779  0.28767847  1
  C  C174  1  0.25272967  0.53629410  0.31635839  1
  Zn  Zn175  1  0.32003146  0.60936585  0.30933929  1
  C  C176  1  0.31574028  0.60631235  0.44341970  1
  H  H177  1  0.21425083  0.86336890  0.31265368  1
  O  O178  1  0.26562068  0.59393525  0.46580230  1
  C  C179  1  0.37218725  0.56032711  0.36831681  1
  Zn  Zn180  1  0.40629067  0.73334047  0.47059770  1
  C  C181  1  0.36917404  0.51724654  0.31883404  1
  O  O182  1  0.36265726  0.62622161  0.46237603  1
  C  C183  1  0.18079962  0.82288061  0.30517757  1
  C  C184  1  0.14103475  0.82654050  0.26275316  1
  O  O185  1  0.44861558  0.68975505  0.40504003  1
  H  H186  1  0.04252744  0.72560877  0.39681338  1
  C  C187  1  0.09573930  0.77540476  0.25501783  1
  C  C188  1  0.18882456  0.87337971  0.48641926  1
  C  C189  1  0.16733198  0.93610445  0.46831655  1
  O  O190  1  0.44543663  0.83293850  0.49033710  1
  C  C191  1  0.20704563  0.98723773  0.45564841  1
  H  H192  1  0.34288346  0.90382236  0.49068063  1
  H  H193  1  0.49180134  0.99113364  0.40220479  1
  C  C194  1  0.05515240  0.65935541  0.27514034  1
  C  C195  1  0.09382959  0.95230853  0.46762968  1
  O  O196  1  0.06216931  0.91263947  0.48976365  1
  Zn  Zn197  1  0.16261277  0.51272399  0.28897152  1
  H  H198  1  0.15721353  0.83114201  0.49611627  1
  O  O199  1  0.47745772  0.50099763  0.32491604  1
  H  H200  1  0.21472142  0.58128596  0.38660827  1
  O  O201  1  0.37861154  0.95360507  0.31109848  1
  C  C202  1  0.01152867  0.71355031  0.47332478  1
  C  C203  1  0.49004149  0.71919472  0.37899540  1
  C  C204  1  0.34499943  0.99968605  0.30802743  1
  C  C205  1  0.35750727  0.64203087  0.58624128  1
  O  O206  1  0.44255659  0.69093192  0.54449553  1
  C  C207  1  0.40563929  0.70098761  0.58093400  1
  C  C208  1  0.31586381  0.66091422  0.62204310  1
  H  H209  1  0.31558883  0.70819417  0.64424866  1
  H  H210  1  0.39280185  0.57490131  0.52970303  1
  C  C211  1  0.22214137  0.62359540  0.67034806  1
  C  C212  1  0.27362513  0.60824163  0.63195671  1
  H  H213  1  0.23973199  0.50555137  0.62266049  1
  O  O214  1  0.41458997  0.74389615  0.61285556  1
  C  C215  1  0.35915991  0.58101553  0.56095038  1
  O  O216  1  0.18528209  0.57739428  0.68304545  1
  O  O217  1  0.08764988  0.69578026  0.53589361  1
  O  O218  1  0.21970489  0.68231065  0.68883670  1
  O  O219  1  0.23767186  0.74776082  0.52641757  1
  C  C220  1  0.31515919  0.52983303  0.57329208  1
  C  C221  1  0.27256926  0.54295937  0.61337582  1
  O  O222  1  0.32882832  0.77763925  0.51053128  1
  C  C223  1  0.27286699  0.79109762  0.51117585  1
  H  H224  1  0.31754102  0.68809669  0.79778679  1
  C  C225  1  0.30630162  0.94829527  0.97017564  1
  H  H226  1  0.13527673  0.98644377  0.96394935  1
  C  C227  1  0.28014039  0.97257534  0.92512022  1
  C  C228  1  0.24823059  0.77551754  0.84309497  1
  O  O229  1  0.01755943  0.77022222  0.89256268  1
  C  C230  1  0.37518905  0.93795306  0.96744941  1
  O  O231  1  0.39217616  0.58746275  0.78897000  1
  C  C232  1  0.32625515  0.59337348  0.90680281  1
  C  C233  1  0.08021582  0.70813788  0.96037961  1
  C  C234  1  0.06094252  0.58040577  0.83529738  1
  O  O235  1  0.40880777  0.96182719  0.93497040  1
  C  C236  1  0.01844126  0.71536859  0.94181777  1
  C  C237  1  0.28736474  0.63308663  0.93805964  1
  C  C238  1  0.27159869  0.61635193  0.99014166  1
  H  H239  1  0.34114376  0.54483089  0.92246309  1
  C  C240  1  0.12649110  0.73515041  0.97171787  1
  C  C241  1  0.38848492  0.57197532  0.83275471  1
  O  O242  1  0.00727553  0.58513922  0.81794841  1
  C  C243  1  0.12302952  0.51762097  0.89935287  1
  C  C244  1  0.34126450  0.61570602  0.85935653  1
  C  C245  1  0.31442062  0.67385017  0.83604796  1
  O  O246  1  0.21468518  0.80977019  0.86968985  1
  O  O247  1  0.26005877  0.78932972  0.80012960  1
  C  C248  1  0.27809337  0.70965950  0.86893971  1
  C  C249  1  0.26021853  0.69300814  0.91738444  1
  H  H250  1  0.22463299  0.72360436  0.93549599  1
  O  O251  1  0.42470788  0.52502658  0.85094773  1
  C  C252  1  0.18539513  0.97974575  0.96491391  1
  O  O253  1  0.10490815  0.60553385  0.81724621  1
  C  C254  1  0.01313911  0.50967848  0.90760422  1
  C  C255  1  0.15247257  0.79492963  0.99773663  1
  H  H256  1  0.20139016  0.81264819  0.99442276  1
  C  C257  1  0.06378935  0.53470619  0.88455563  1
  H  H258  1  0.16542018  0.54004543  0.88203728  1
  O  O259  1  0.40605374  0.72282050  0.95621543  1
  C  C260  1  0.45095762  0.71326238  0.97855395  1
  C  C261  1  0.22098291  0.98890890  0.92207410  1
  H  H262  1  0.30963564  0.97956064  0.89285424  1
  H  H263  1  0.76462955  0.13003289  0.22705868  1
  O  O264  1  0.83006350  0.06778750  0.16384013  1
  C  C265  1  0.81179948  0.02110990  0.18881135  1
  H  H266  1  0.70085544  0.00594285  0.02336691  1
  O  O267  1  0.93037621  0.46247191  0.14730031  1
  C  C268  1  0.77285234  0.01977891  0.23467195  1
  H  H269  1  0.82649619  0.47118011  0.11764424  1
  O  O270  1  0.94345908  0.35273317  0.15701309  1
  C  C271  1  0.92735960  0.40773797  0.17300528  1
  O  O272  1  0.76336606  0.38113319  0.13078059  1
  C  C273  1  0.73284437  0.44280083  0.00476993  1
  H  H274  1  0.70381854  0.36208615  0.08292710  1
  C  C275  1  0.74584330  0.39594062  0.09088430  1
  O  O276  1  0.96832327  0.42500335  0.02657552  1
  C  C277  1  0.82151451  0.49019226  0.07590365  1
  C  C278  1  0.76846368  0.44828275  0.05229705  1
  C  C279  1  0.91016213  0.40962355  0.22932588  1
  H  H280  1  0.89449077  0.30296173  0.22836019  1
  C  C281  1  0.75193347  0.08809484  0.24992303  1
  C  C282  1  0.74030884  0.42482878  0.36976639  1
  C  C283  1  0.88670089  0.40904067  0.33285804  1
  C  C284  1  0.88527531  0.34643391  0.30528752  1
  O  O285  1  0.91826483  0.09906999  0.34991757  1
  C  C286  1  0.58149408  0.37065929  0.38050042  1
  H  H287  1  0.88000971  0.40772736  0.37345534  1
  C  C288  1  0.69079506  0.16552299  0.29849081  1
  C  C289  1  0.71044683  0.09276379  0.28731941  1
  H  H290  1  0.88650413  0.13694119  0.41018378  1
  O  O291  1  0.71958159  0.32407994  0.48392928  1
  C  C292  1  0.58957830  0.43907568  0.41015433  1
  C  C293  1  0.54220693  0.05050818  0.45978319  1
  C  C294  1  0.92800560  0.03251613  0.38540356  1
  O  O295  1  0.71020255  0.21438977  0.27631727  1
  C  C296  1  0.90269306  0.46947436  0.30761764  1
  C  C297  1  0.59375756  0.44034221  0.46140494  1
  O  O298  1  0.56753038  0.31703431  0.40622736  1
  C  C299  1  0.88624784  0.22322603  0.35165189  1
  H  H300  1  0.66201983  0.04319516  0.34955414  1
  H  H301  1  0.73824583  0.38079047  0.34227786  1
  O  O302  1  0.92241189  0.03646992  0.42866102  1
  C  C303  1  0.89354687  0.15216032  0.36848417  1
  O  O304  1  0.71448675  0.28741756  0.40868618  1
  C  C305  1  0.55448908  0.11332175  0.42477258  1
  C  C306  1  0.88341825  0.27919477  0.33177166  1
  Zn  Zn307  1  0.63009617  0.23280868  0.40237582  1
  C  C308  1  0.73390770  0.41099035  0.42049631  1
  O  O309  1  0.65067119  0.17095322  0.33291945  1
  H  H310  1  0.58646666  0.39238759  0.48387925  1
  C  C311  1  0.72015049  0.33644419  0.43839628  1
  C  C312  1  0.74063073  0.46157905  0.45656481  1
  H  H313  1  0.73562842  0.44661556  0.49462633  1
  O  O314  1  0.52835339  0.12670749  0.38573502  1
  O  O315  1  0.59091664  0.36777099  0.33641546  1
  C  C316  1  0.69158854  0.03499434  0.31547521  1
  O  O317  1  0.58839780  0.15634193  0.44605655  1
  H  H318  1  0.92770425  0.00568666  0.27407344  1
  C  C319  1  0.91316628  0.47247775  0.25438364  1
  C  C320  1  0.75164636  0.49265290  0.35316294  1
  H  H321  1  0.59022969  0.49861900  0.34042602  1
  C  C322  1  0.59326944  0.49838552  0.38175550  1
  C  C323  1  0.89616957  0.34818757  0.25221594  1
  H  H324  1  0.59409577  0.09551102  0.52306739  1
  H  H325  1  0.91871786  0.33399555  0.62250451  1
  H  H326  1  0.90625564  0.08482750  0.73183315  1
  C  C327  1  0.87436667  0.06695216  0.70223454  1
  C  C328  1  0.87828051  0.08916698  0.65198706  1
  O  O329  1  0.61597656  0.45153711  0.57448570  1
  C  C330  1  0.91896535  0.14929812  0.64185364  1
  H  H331  1  0.84626854  0.08585016  0.57374813  1
  C  C332  1  0.84451384  0.06242595  0.61103707  1
  C  C333  1  0.56506769  0.05243690  0.50873297  1
  C  C334  1  0.96830913  0.32254754  0.62174109  1
  C  C335  1  0.98452851  0.44821134  0.60955234  1
  H  H336  1  0.58697858  0.04063747  0.73696541  1
  C  C337  1  0.95321616  0.19777009  0.63642093  1
  C  C338  1  0.99432834  0.25840775  0.63047622  1
  C  C339  1  0.62184743  0.49356260  0.54276250  1
  C  C340  1  0.83495048  0.01243069  0.70578198  1
  C  C341  1  0.80838478  0.00800981  0.62127027  1
  O  O342  1  0.60867327  0.03212222  0.83339232  1
  O  O343  1  0.61560152  0.06926608  0.97525214  1
  O  O344  1  0.91510486  0.45985444  0.96249768  1
  C  C345  1  0.96422736  0.45032609  0.98183017  1
  O  O346  1  0.84530432  0.01848374  0.79053728  1
  O  O347  1  0.69377192  0.41914133  0.97983430  1
  C  C348  1  0.60757908  0.01537092  0.95620897  1
  O  O349  1  0.51096259  0.47383628  0.99130819  1
  O  O350  1  0.59772695  0.80067897  0.00648829  1
  Zn  Zn351  1  0.58951849  0.82864090  0.08810228  1
  Zn  Zn352  1  0.82179023  0.91445329  0.17398790  1
  C  C353  1  0.71742661  0.89300150  0.08332933  1
  H  H354  1  0.71308414  0.77136595  0.15917958  1
  O  O355  1  0.80470318  0.81426334  0.18861713  1
  O  O356  1  0.61658799  0.72760151  0.11424647  1
  C  C357  1  0.73394227  0.74443856  0.23762195  1
  O  O358  1  0.91186075  0.68384223  0.16336355  1
  C  C359  1  0.72051895  0.54516754  0.17316309  1
  C  C360  1  0.70028151  0.74158788  0.19305769  1
  C  C361  1  0.81640444  0.62962663  0.14471367  1
  O  O362  1  0.52113422  0.99873246  0.13365833  1
  C  C363  1  0.71649748  0.89178868  0.02897772  1
  C  C364  1  0.86992700  0.67406716  0.13091004  1
  O  O365  1  0.76057022  0.91998269  0.10415902  1
  O  O366  1  0.67699011  0.58871860  0.04531637  1
  C  C367  1  0.55107502  0.66862909  0.01908376  1
  H  H368  1  0.76395937  0.65195392  0.07515345  1
  C  C369  1  0.76851195  0.62191962  0.11098394  1
  O  O370  1  0.56415835  0.65102850  0.15365985  1
  O  O371  1  0.67785450  0.85973102  0.10806876  1
  O  O372  1  0.93567404  0.91392396  0.20591476  1
  O  O373  1  0.86767926  0.70665087  0.09179411  1
  C  C374  1  0.67221580  0.55942536  0.09087805  1
  H  H375  1  0.93083059  0.51747596  0.23711336  1
  C  C376  1  0.64710967  0.70435649  0.20044702  1
  C  C377  1  0.76786601  0.55612749  0.20717632  1
  C  C378  1  0.95328585  0.87595743  0.23923113  1
  C  C379  1  0.81911131  0.59650188  0.19175610  1
  C  C380  1  0.72246087  0.57778436  0.12728743  1
  C  C381  1  0.62598416  0.67547652  0.24436513  1
  O  O382  1  0.96925298  0.81456096  0.23242811  1
  O  O383  1  0.54211113  0.93154350  0.07003148  1
  C  C384  1  0.60460464  0.69182053  0.15466085  1
  C  C385  1  0.79154280  0.78564470  0.23007848  1
  C  C386  1  0.50625111  0.95398851  0.10604703  1
  C  C387  1  0.86492747  0.54107665  0.05998461  1
  O  O388  1  0.63539367  0.51843489  0.10070057  1
  H  H389  1  0.85760862  0.60582559  0.21474643  1
  H  H390  1  0.59423879  0.68935657  0.03593038  1
  H  H391  1  0.58159769  0.64955282  0.24928645  1
  C  C392  1  0.88332430  0.58262776  0.02098336  1
  Zn  Zn393  1  0.92163461  0.71790177  0.24476159  1
  O  O394  1  0.99951698  0.88547774  0.05529893  1
  O  O395  1  0.75457401  0.76987231  0.00355403  1
  C  C396  1  0.73783447  0.82748343  0.00538679  1
  H  H397  1  0.68370797  0.51304646  0.18258342  1
  C  C398  1  0.69791969  0.95730261  0.00118584  1
  C  C399  1  0.56336654  0.59111325  0.00991686  1
  H  H400  1  0.63910743  0.51213076  0.01042780  1
  H  H401  1  0.75388250  0.59974940  0.37347292  1
  O  O402  1  0.89547382  0.53988947  0.38251537  1
  C  C403  1  0.72115047  0.71446205  0.28427623  1
  C  C404  1  0.60983176  0.56223016  0.40609830  1
  H  H405  1  0.75090511  0.71154273  0.31710353  1
  C  C406  1  0.66514655  0.68217670  0.28593633  1
  H  H407  1  0.94885320  0.89836310  0.41840323  1
  C  C408  1  0.91295006  0.75848662  0.49383827  1
  C  C409  1  0.51038351  0.99342621  0.44027056  1
  C  C410  1  0.74949675  0.58655383  0.47989101  1
  C  C411  1  0.71847879  0.96995049  0.30542475  1
  H  H412  1  0.57875969  0.78597196  0.32726377  1
  C  C413  1  0.94881057  0.85600791  0.34002215  1
  H  H414  1  0.86224962  0.80487020  0.43479655  1
  C  C415  1  0.69907862  0.90800467  0.33549220  1
  C  C416  1  0.75174489  0.52939572  0.44043424  1
  C  C417  1  0.94389643  0.89843912  0.29368788  1
  C  C418  1  0.62645551  0.60850582  0.36591112  1
  C  C419  1  0.95039678  0.76280198  0.40905347  1
  C  C420  1  0.58921479  0.77314331  0.36653588  1
  H  H421  1  0.91219282  0.65303618  0.37922991  1
  C  C422  1  0.64185665  0.80640606  0.38689040  1
  C  C423  1  0.67738842  0.86186552  0.35983861  1
  C  C424  1  0.64014418  0.64307893  0.32937566  1
  C  C425  1  0.56583484  0.72804943  0.45092872  1
  C  C426  1  0.94488138  0.90648689  0.37864614  1
  C  C427  1  0.94673893  0.78291203  0.35353569  1
  C  C428  1  0.93477113  0.72331587  0.32463223  1
  O  O429  1  0.91164934  0.59741582  0.30885081  1
  C  C430  1  0.90014248  0.53169369  0.33925958  1
  C  C431  1  0.65442723  0.80228795  0.43856677  1
  C  C432  1  0.90221584  0.77539074  0.44465839  1
  C  C433  1  0.55356290  0.74017678  0.40031004  1
  C  C434  1  0.91959657  0.65519858  0.33632615  1
  H  H435  1  0.69516024  0.82372072  0.45660540  1
  C  C436  1  0.75604224  0.54621796  0.38922577  1
  H  H437  1  0.53575000  0.69546293  0.47428221  1
  H  H438  1  0.63663961  0.60925535  0.47692661  1
  O  O439  1  0.75762131  0.64731830  0.46644425  1
  C  C440  1  0.93577521  0.96727324  0.30143304  1
  C  C441  1  0.61595409  0.56302599  0.45964133  1
  O  O442  1  0.82812842  0.77272839  0.26392333  1
  C  C443  1  0.61828092  0.76039342  0.46869649  1
  C  C444  1  0.93293742  0.97112629  0.35529569  1
  C  C445  1  0.76535493  0.52437621  0.25631629  1
  C  C446  1  0.75706032  0.95877459  0.26315900  1
  C  C447  1  0.60913969  0.50048820  0.48783450  1
  C  C448  1  0.75951079  0.50860575  0.30016432  1
  C  C449  1  0.50099176  0.93938939  0.47335857  1
  H  H450  1  0.77976107  0.90804085  0.25567733  1
  C  C451  1  0.86856479  0.78048643  0.53624600  1
  H  H452  1  0.77230446  0.93493648  0.67571684  1
  C  C453  1  0.57692526  0.99738882  0.59238897  1
  O  O454  1  0.58594372  0.55563654  0.66282131  1
  C  C455  1  0.64320771  0.89545803  0.67250619  1
  C  C456  1  0.63459735  0.75125077  0.52360310  1
  O  O457  1  0.73877012  0.57035959  0.52593703  1
  O  O458  1  0.61465492  0.70457456  0.54920563  1
  O  O459  1  0.67239489  0.59781111  0.63748874  1
  O  O460  1  0.88241160  0.76443050  0.57848710  1
  C  C461  1  0.65666124  0.58423001  0.72588578  1
  C  C462  1  0.80292447  0.97776587  0.66827233  1
  O  O463  1  0.73961551  0.92415594  0.58914119  1
  Zn  Zn464  1  0.64913691  0.59550322  0.56073488  1
  C  C465  1  0.67695140  0.87094010  0.71198119  1
  O  O466  1  0.97029274  0.50736996  0.60860439  1
  O  O467  1  0.74650271  0.78937661  0.73720432  1
  C  C468  1  0.51879565  0.93887508  0.52317968  1
  O  O469  1  0.67443220  0.79356415  0.53754807  1
  H  H470  1  0.75019321  0.62575265  0.70472629  1
  C  C471  1  0.61632963  0.96175029  0.68195401  1
  C  C472  1  0.61295663  0.99008139  0.73031889  1
  Zn  Zn473  1  0.75244761  0.81709867  0.58341572  1
  H  H474  1  0.64085611  0.87070915  0.63721503  1
  O  O475  1  0.73308245  0.78746748  0.65817365  1
  C  C476  1  0.71996492  0.81084040  0.70051947  1
  H  H477  1  0.50292546  0.89657357  0.54725977  1
  C  C478  1  0.63432538  0.58230073  0.67118947  1
  C  C479  1  0.71496767  0.61147247  0.73323793  1
  C  C480  1  0.96696118  0.72699747  0.50909982  1
  H  H481  1  0.97422478  0.71632672  0.54922334  1
  C  C482  1  0.59555584  0.98952244  0.63491666  1
  C  C483  1  0.77390141  0.97467858  0.57729812  1
  O  O484  1  0.77627016  0.99907939  0.53618280  1
  C  C485  1  0.55150967  0.99613767  0.54104525  1
  O  O486  1  0.81955519  0.80740486  0.52210110  1
  C  C487  1  0.86729338  0.82850438  0.90791233  1
  H  H488  1  0.68492264  0.60493606  0.93373291  1
  C  C489  1  0.66422274  0.96669219  0.95232291  1
  C  C490  1  0.86177663  0.73744820  0.83805861  1
  O  O491  1  0.67730380  0.93788436  0.85933460  1
  C  C492  1  0.59972540  0.56107770  0.85487117  1
  Zn  Zn493  1  0.80279386  0.52360332  0.99923944  1
  C  C494  1  0.90288965  0.75573442  0.88400297  1
  C  C495  1  0.82985865  0.97926644  0.75764496  1
  C  C496  1  0.67786982  0.94390623  0.90452977  1
  O  O497  1  0.82300036  0.85089961  0.88389924  1
  O  O498  1  0.96990680  0.68380048  0.95464764  1
  O  O499  1  0.86129568  0.63093106  0.93153528  1
  O  O500  1  0.79875822  0.68672352  0.83391067  1
  C  C501  1  0.73350229  0.62309207  0.78110546  1
  Zn  Zn502  1  0.74251539  0.89951366  0.94718414  1
  C  C503  1  0.89081648  0.72350072  0.78236911  1
  C  C504  1  0.79034948  0.65900293  0.79071552  1
  C  C505  1  0.64170984  0.57965105  0.94528778  1
  Zn  Zn506  1  0.93719696  0.66772236  0.84755646  1
  C  C507  1  0.86418860  0.59825971  0.97175595  1
  C  C508  1  0.63929614  0.57339658  0.81227409  1
  C  C509  1  0.64313117  0.95640364  0.76874964  1
  H  H510  1  0.96688347  0.52006099  0.89367245  1
  C  C511  1  0.90526474  0.70601742  0.92662733  1
  H  H512  1  0.70722573  0.86925353  0.78778281  1
  H  H513  1  0.71159421  0.61721815  0.85811027  1
  O  O514  1  0.80739835  0.91925051  0.76256457  1
  C  C515  1  0.69572500  0.60461631  0.82070292  1
  H  H516  1  0.87424799  0.72988544  0.95598450  1
  O  O517  1  0.89235645  0.85237658  0.94279214  1
  C  C518  1  0.60039363  0.56628839  0.90689043  1
  C  C519  1  0.63633572  0.98458215  0.82060045  1
  O  O520  1  0.55594769  0.99244480  0.94310780  1
  Zn  Zn521  1  0.51460860  0.53702589  0.86675699  1
  Zn  Zn522  1  0.83783254  0.82203106  0.78997346  1
  H  H523  1  0.97016385  0.81634374  0.83798817  1
  C  C524  1  0.96925080  0.77786184  0.87031615  1
  C  C525  1  0.62860034  0.56615330  0.99848094  1
  C  C526  1  0.55044926  0.78900151  0.98276457  1
  C  C527  1  0.67883602  0.89609309  0.75961542  1
  O  O528  1  0.52823286  0.83480249  0.95505149  1
  Zn  Zn529  1  0.50000730  0.93331581  0.98735531  1
  C  C530  1  0.61744874  0.56647112  0.76237974  1
  C  C531  1  0.51571453  0.72230140  0.99153410  1
  C  C532  1  0.51983146  0.53437873  0.99757446  1
  H  H533  1  0.57126244  0.55024602  0.75277226  1
  O  O534  1  0.92969065  0.73858106  0.75407542  1
  O  O535  1  0.82960892  0.66968137  0.75768721  1
