# generated using pymatgen
data_ZnH2C3N3O2
_symmetry_space_group_name_H-M   'P 1'
_cell_length_a   17.13234298
_cell_length_b   22.13506489
_cell_length_c   14.49380925
_cell_angle_alpha   90.00000000
_cell_angle_beta   90.00000000
_cell_angle_gamma   90.00000000
_symmetry_Int_Tables_number   1
_chemical_formula_structural   ZnH2C3N3O2
_chemical_formula_sum   'Zn32 H64 C96 N96 O64'
_cell_volume   5496.42240085
_cell_formula_units_Z   32
loop_
 _symmetry_equiv_pos_site_id
 _symmetry_equiv_pos_as_xyz
  1  'x, y, z'
loop_
 _atom_site_type_symbol
 _atom_site_label
 _atom_site_symmetry_multiplicity
 _atom_site_fract_x
 _atom_site_fract_y
 _atom_site_fract_z
 _atom_site_occupancy
  Zn  Zn0  1  0.11680253  0.17462175  0.06303087  1
  N  N1  1  0.12377612  0.09921396  0.15095048  1
  N  N2  1  0.33041869  0.17140782  0.43915917  1
  O  O3  1  0.32906694  0.16464658  0.00484443  1
  C  C4  1  0.00197401  0.03340284  0.38174158  1
  N  N5  1  0.21076643  0.13302344  0.34230479  1
  Zn  Zn6  1  0.12467325  0.15584587  0.25887841  1
  N  N7  1  0.01578179  0.19406439  0.30395289  1
  C  C8  1  0.34506267  0.11556002  0.44215516  1
  H  H9  1  0.44410455  0.13852922  0.33291337  1
  H  H10  1  0.20280380  0.04107656  0.33740971  1
  Zn  Zn11  1  0.25303489  0.21517337  0.36004861  1
  N  N12  1  0.01379742  0.07415894  0.44267739  1
  C  C13  1  0.34067684  0.03162428  0.10423530  1
  C  C14  1  0.40760809  0.18222636  0.03551900  1
  C  C15  1  0.23603729  0.08021408  0.36577285  1
  N  N16  1  0.30078018  0.06732884  0.41168620  1
  N  N17  1  0.28147258  0.02673980  0.04840712  1
  O  O18  1  0.43258266  0.15652315  0.09899523  1
  C  C19  1  0.10684828  0.04879738  0.14394446  1
  H  H20  1  0.37030708  0.07716665  0.09938197  1
  N  N21  1  0.05834655  0.23942334  0.46972755  1
  Zn  Zn22  1  0.39194940  0.24116788  0.49897075  1
  N  N23  1  0.02265078  0.22211880  0.08354796  1
  N  N24  1  0.17012086  0.23841945  0.27403886  1
  Zn  Zn25  1  0.47253566  0.00595283  0.23585365  1
  Zn  Zn26  1  0.00440961  0.16500537  0.43873631  1
  H  H27  1  0.39801357  0.10909135  0.48453628  1
  H  H28  1  0.22399945  0.11739310  0.49451596  1
  N  N29  1  0.04738760  0.14003693  0.56265277  1
  O  O30  1  0.31691372  0.12087902  0.75257557  1
  C  C31  1  0.27743153  0.13655849  0.69371497  1
  Zn  Zn32  1  0.04382565  0.05568043  0.57434181  1
  O  O33  1  0.21020727  0.13448277  0.55364126  1
  H  H34  1  0.21612209  0.19230850  0.63996104  1
  Zn  Zn35  1  0.23361879  0.08577490  0.95145893  1
  C  C36  1  0.06840832  0.17660377  0.62855544  1
  N  N37  1  0.17003226  0.16613659  0.94561789  1
  O  O38  1  0.27310405  0.05022441  0.59998140  1
  C  C39  1  0.17179019  0.19950311  0.88181797  1
  C  C40  1  0.45469246  0.20515104  0.67229968  1
  H  H41  1  0.08493177  0.16052560  0.69857679  1
  H  H42  1  0.45635440  0.21125906  0.74679966  1
  N  N43  1  0.08777428  0.23200777  0.63514368  1
  C  C44  1  0.25501048  0.09991086  0.61491908  1
  H  H45  1  0.32744549  0.19808942  0.95575998  1
  N  N46  1  0.41017711  0.24320880  0.62955672  1
  O  O47  1  0.25206685  0.19680065  0.69036880  1
  N  N48  1  0.15501943  0.24366368  0.83319474  1
  N  N49  1  0.02755032  0.01455310  0.69867929  1
  N  N50  1  0.19619000  0.00329170  0.90035137  1
  C  C51  1  0.45123758  0.22900222  0.98665224  1
  N  N52  1  0.26234691  0.29733530  0.19555012  1
  N  N53  1  0.15283911  0.25978739  0.11527241  1
  N  N54  1  0.00515772  0.33730479  0.30766974  1
  C  C55  1  0.34668427  0.45101158  0.46970333  1
  C  C56  1  0.16616014  0.39191437  0.47787753  1
  C  C57  1  0.26888140  0.31366064  0.10965516  1
  C  C58  1  0.41222654  0.33429411  0.33743181  1
  N  N59  1  0.44116654  0.29027102  0.38492368  1
  H  H60  1  0.35188949  0.34753202  0.35660235  1
  Zn  Zn61  1  0.06115478  0.30637021  0.06421035  1
  Zn  Zn62  1  0.08436615  0.27674907  0.35816036  1
  C  C63  1  0.19075442  0.27061196  0.19192319  1
  C  C64  1  0.03081240  0.43006373  0.12931354  1
  C  C65  1  0.24320142  0.32295648  0.46081665  1
  N  N66  1  0.28365798  0.28172400  0.44549403  1
  N  N67  1  0.17069654  0.33541187  0.44057555  1
  N  N68  1  0.02594482  0.39228470  0.06338669  1
  N  N69  1  0.44479153  0.36804668  0.27459689  1
  H  H70  1  0.05989847  0.40595386  0.18748972  1
  N  N71  1  0.32474488  0.48544548  0.41298727  1
  O  O72  1  0.29053280  0.33561952  0.04020249  1
  N  N73  1  0.13147123  0.43552475  0.49036379  1
  O  O74  1  0.00410995  0.48473773  0.13027535  1
  C  C75  1  0.41429830  0.41418290  0.57435137  1
  C  C76  1  0.07838381  0.25489828  0.55151825  1
  C  C77  1  0.19178896  0.35171965  0.70408241  1
  N  N78  1  0.13923987  0.38569661  0.69224571  1
  N  N79  1  0.44390834  0.32175364  0.77948553  1
  O  O80  1  0.31621330  0.47077859  0.71894498  1
  C  C81  1  0.45037100  0.29377573  0.85425749  1
  N  N82  1  0.05942602  0.44665560  0.86072429  1
  H  H83  1  0.11169553  0.30006066  0.55542950  1
  N  N84  1  0.06780844  0.30701170  0.92846049  1
  N  N85  1  0.34852829  0.40456406  0.52485585  1
  N  N86  1  0.24931965  0.31447184  0.71749748  1
  C  C87  1  0.10766241  0.27929388  0.88031204  1
  Zn  Zn88  1  0.35988163  0.31614642  0.68720784  1
  H  H89  1  0.08922011  0.36787465  0.72651660  1
  H  H90  1  0.11281764  0.43603257  0.89656225  1
  H  H91  1  0.24460736  0.27592723  0.75078241  1
  N  N92  1  0.42922609  0.38229678  0.64629413  1
  H  H93  1  0.46303141  0.44658766  0.55504130  1
  H  H94  1  0.36433984  0.45891080  0.68314408  1
  O  O95  1  0.41033813  0.47433057  0.82388847  1
  C  C96  1  0.34453101  0.47711748  0.80417354  1
  O  O97  1  0.41291819  0.25135229  0.89218361  1
  O  O98  1  0.20965666  0.45929208  0.88362414  1
  C  C99  1  0.26621373  0.49192786  0.87891755  1
  C  C100  1  0.05140130  0.49092336  0.80342585  1
  Zn  Zn101  1  0.01251103  0.45283191  0.50641991  1
  C  C102  1  0.15266162  0.73366095  0.10014890  1
  H  H103  1  0.22715148  0.61068335  0.12161821  1
  C  C104  1  0.24828995  0.65125807  0.45974753  1
  N  N105  1  0.21012911  0.69619285  0.12335836  1
  H  H106  1  0.19247413  0.51698792  0.43267967  1
  C  C107  1  0.03915773  0.57727656  0.47229321  1
  H  H108  1  0.36071600  0.52201899  0.40765818  1
  H  H109  1  0.09369085  0.71897592  0.07044308  1
  N  N110  1  0.04917255  0.63121910  0.44503953  1
  C  C111  1  0.17892304  0.64152552  0.11112537  1
  H  H112  1  0.01857727  0.71565367  0.48722508  1
  N  N113  1  0.11800483  0.61057301  0.08920252  1
  O  O114  1  0.20355893  0.55751033  0.40499452  1
  Zn  Zn115  1  0.01100300  0.63387279  0.05942611  1
  O  O116  1  0.26534835  0.66602662  0.37969320  1
  H  H117  1  0.11130243  0.56543837  0.07558344  1
  C  C118  1  0.22516369  0.58892699  0.47976433  1
  O  O119  1  0.22100242  0.56914711  0.55419845  1
  C  C120  1  0.02264658  0.66818190  0.51143781  1
  N  N121  1  0.01635932  0.54602531  0.53208086  1
  H  H122  1  0.11203458  0.51147072  0.78922143  1
  O  O123  1  0.25074176  0.69026006  0.52033330  1
  O  O124  1  0.04994131  0.70629071  0.84745947  1
  O  O125  1  0.26937975  0.54199101  0.91249854  1
  O  O126  1  0.12335125  0.79022954  0.44813223  1
  H  H127  1  0.43514730  0.80426290  0.14178303  1
  C  C128  1  0.34619351  0.93510614  0.16234015  1
  Zn  Zn129  1  0.08967781  0.85429477  0.06458427  1
  O  O130  1  0.23775141  0.86903075  0.39990526  1
  H  H131  1  0.33233320  0.96675320  0.37715859  1
  C  C132  1  0.04889177  0.97182732  0.12406699  1
  N  N133  1  0.28720444  0.90774503  0.12069977  1
  H  H134  1  0.38647490  0.91132494  0.21499907  1
  C  C135  1  0.11232578  0.82635893  0.38663865  1
  H  H136  1  0.43162760  0.76853172  0.42917066  1
  Zn  Zn137  1  0.21190142  0.95495740  0.03193896  1
  N  N138  1  0.33822330  0.80012764  0.22963187  1
  O  O139  1  0.05635945  0.82658037  0.34081817  1
  N  N140  1  0.16353759  0.79188035  0.10153955  1
  Zn  Zn141  1  0.25651023  0.82710116  0.14460791  1
  H  H142  1  0.06281103  0.89636637  0.45711333  1
  N  N143  1  0.01744167  0.97415577  0.39324636  1
  O  O144  1  0.16641212  0.91991796  0.30653411  1
  C  C145  1  0.17729484  0.87920719  0.35597746  1
  N  N146  1  0.45189791  0.96767822  0.36762346  1
  C  C147  1  0.38784040  0.95966018  0.41197764  1
  C  C148  1  0.04904838  0.94628728  0.46407289  1
  C  C149  1  0.41329071  0.79628495  0.20988309  1
  N  N150  1  0.33774693  0.78595976  0.34625753  1
  N  N151  1  0.02634200  0.92393528  0.10208722  1
  Zn  Zn152  1  0.25640153  0.76945695  0.42878156  1
  N  N153  1  0.37857699  0.99150753  0.15707872  1
  N  N154  1  0.12676034  0.99207745  0.12104380  1
  C  C155  1  0.41310904  0.77850994  0.35976489  1
  N  N156  1  0.46134836  0.78520401  0.28382691  1
  O  O157  1  0.43411994  0.82978530  0.00788411  1
  N  N158  1  0.05997292  0.96918282  0.54391294  1
  C  C159  1  0.13519930  0.89312328  0.86958297  1
  N  N160  1  0.04649032  0.85169019  0.62398303  1
  C  C161  1  0.39051481  0.83595603  0.94639606  1
  N  N162  1  0.14404311  0.89679212  0.95840370  1
  N  N163  1  0.13667794  0.93604898  0.80098139  1
  H  H164  1  0.09784784  0.85491123  0.84435071  1
  Zn  Zn165  1  0.09066395  0.93326708  0.66580433  1
  H  H166  1  0.48538556  0.93577292  0.59733668  1
  C  C167  1  0.16468664  0.98454658  0.83614048  1
  O  O168  1  0.34686765  0.84163618  0.88630686  1
  O  O169  1  0.47969562  0.97914243  0.78066337  1
  C  C170  1  0.02814167  0.75704666  0.85170403  1
  O  O171  1  0.00685375  0.80730154  0.85743813  1
  C  C172  1  0.46443613  0.94856142  0.52972959  1
  H  H173  1  0.48907402  0.99396417  0.85158996  1
  N  N174  1  0.38686631  0.94915878  0.50392287  1
  C  C175  1  0.75773996  0.08236711  0.15978524  1
  N  N176  1  0.80439505  0.17958354  0.41765156  1
  C  C177  1  0.95876794  0.19736152  0.24100873  1
  N  N178  1  0.56362779  0.17147911  0.32444024  1
  O  O179  1  0.71352429  0.08157055  0.09845267  1
  N  N180  1  0.64461929  0.13295460  0.29212114  1
  C  C181  1  0.61315420  0.08441727  0.26084627  1
  H  H182  1  0.98016913  0.03950838  0.30712155  1
  C  C183  1  0.96799825  0.20698001  0.14045147  1
  C  C184  1  0.83170460  0.06383706  0.20656519  1
  N  N185  1  0.90084502  0.19210513  0.18521642  1
  O  O186  1  0.59183588  0.07579951  0.46675086  1
  N  N187  1  0.53407212  0.08078668  0.27212780  1
  Zn  Zn188  1  0.77980501  0.14117071  0.28621245  1
  H  H189  1  0.64909797  0.04662467  0.23230447  1
  H  H190  1  0.56417739  0.03659851  0.45482715  1
  O  O191  1  0.68370550  0.23893290  0.18553232  1
  H  H192  1  0.69368830  0.20778549  0.47011321  1
  O  O193  1  0.89125928  0.03473660  0.20941304  1
  H  H194  1  0.59505882  0.09115018  0.40581297  1
  H  H195  1  0.83639656  0.10788740  0.01305585  1
  C  C196  1  0.50695597  0.13223267  0.31515508  1
  C  C197  1  0.75691047  0.20119611  0.47783016  1
  O  O198  1  0.78838667  0.01503839  0.40829034  1
  N  N199  1  0.89138241  0.18390947  0.47223747  1
  N  N200  1  0.50083742  0.21283787  0.48788498  1
  C  C201  1  0.82564938  0.01542935  0.47557022  1
  O  O202  1  0.71247381  0.24085769  0.76954294  1
  O  O203  1  0.72199251  0.10696266  0.84282828  1
  N  N204  1  0.78988560  0.21180745  0.56431034  1
  C  C205  1  0.93747763  0.12279582  0.82433687  1
  C  C206  1  0.86721722  0.19876645  0.55568058  1
  C  C207  1  0.89925524  0.14630250  0.90695371  1
  H  H208  1  0.75476793  0.03312611  0.93354295  1
  C  C209  1  0.66573456  0.20352126  0.78768871  1
  H  H210  1  0.65014401  0.04568775  0.57610886  1
  O  O211  1  0.59878898  0.21455205  0.80842996  1
  C  C212  1  0.69022030  0.12861029  0.77994657  1
  O  O213  1  0.67008088  0.10170773  0.70622918  1
  O  O214  1  0.95061382  0.14763088  0.75563909  1
  C  C215  1  0.53787807  0.17889561  0.54860569  1
  N  N216  1  0.70250960  0.02703822  0.70224226  1
  H  H217  1  0.90780934  0.19903507  0.61118595  1
  O  O218  1  0.88120097  0.19454147  0.92892875  1
  C  C219  1  0.67903876  0.01015331  0.61988492  1
  H  H220  1  0.87894809  0.05964793  0.94522187  1
  O  O221  1  0.96357496  0.05266677  0.83556328  1
  H  H222  1  0.59425054  0.15796573  0.52836603  1
  C  C223  1  0.99752668  0.03109492  0.76474135  1
  O  O224  1  0.86196829  0.01462869  0.54309511  1
  N  N225  1  0.51534365  0.17253646  0.63832031  1
  O  O226  1  0.89309783  0.09105521  0.98980571  1
  C  C227  1  0.52100357  0.35927693  0.25137539  1
  N  N228  1  0.93854836  0.41079242  0.40184735  1
  C  C229  1  0.68854555  0.32046248  0.46025926  1
  H  H230  1  0.71786007  0.31285115  0.39386262  1
  O  O231  1  0.65697060  0.33492648  0.21820962  1
  Zn  Zn232  1  0.54901708  0.25911994  0.37030469  1
  O  O233  1  0.84548486  0.31295219  0.16742524  1
  N  N234  1  0.79482229  0.32502416  0.05938222  1
  C  C235  1  0.96303675  0.37381984  0.35574536  1
  C  C236  1  0.79683470  0.30313017  0.23325831  1
  N  N237  1  0.56987570  0.31694705  0.27675319  1
  H  H238  1  0.53974456  0.38642050  0.19192040  1
  C  C239  1  0.70165697  0.29014335  0.20789506  1
  O  O240  1  0.50604603  0.25434215  0.00879234  1
  O  O241  1  0.81553984  0.30392061  0.31257416  1
  N  N242  1  0.61379237  0.30745372  0.47102321  1
  H  H243  1  0.97047797  0.30194077  0.27895992  1
  C  C244  1  0.67758935  0.49366424  0.34705914  1
  O  O245  1  0.72981332  0.46831882  0.38499509  1
  C  C246  1  0.84536320  0.32906085  0.00847154  1
  C  C247  1  0.58169654  0.47975093  0.39146281  1
  H  H248  1  0.63673902  0.42161109  0.45387908  1
  O  O249  1  0.57745967  0.43681356  0.45584732  1
  N  N250  1  0.93393833  0.40176477  0.57973958  1
  N  N251  1  0.77272378  0.45555670  0.59891541  1
  Zn  Zn252  1  0.82744839  0.36817511  0.82086729  1
  N  N253  1  0.58796897  0.38494208  0.82119811  1
  Zn  Zn254  1  0.52376782  0.37279655  0.72161422  1
  N  N255  1  0.88073883  0.34415017  0.93622485  1
  C  C256  1  0.93141233  0.47401944  0.77756282  1
  C  C257  1  0.66361089  0.37841705  0.82837437  1
  N  N258  1  0.58941982  0.35705275  0.61842372  1
  H  H259  1  0.54475483  0.39200721  0.87256118  1
  H  H260  1  0.50837804  0.30969645  0.88150359  1
  C  C261  1  0.56969256  0.32517096  0.54442058  1
  H  H262  1  0.50728096  0.30788675  0.54095349  1
  N  N263  1  0.91195630  0.42739443  0.83359849  1
  Zn  Zn264  1  0.69946878  0.38499145  0.64196922  1
  C  C265  1  0.95284637  0.36301268  0.64192517  1
  N  N266  1  0.71902583  0.37507840  0.78164133  1
  H  H267  1  0.88339892  0.48970777  0.73241854  1
  O  O268  1  0.97358932  0.32894121  0.69853843  1
  N  N269  1  0.72512797  0.35604170  0.51877172  1
  H  H270  1  0.94388372  0.47411011  0.98813830  1
  Zn  Zn271  1  0.98743136  0.38133680  0.92108141  1
  Zn  Zn272  1  0.83482825  0.40358382  0.50326387  1
  C  C273  1  0.85194343  0.65784183  0.39351873  1
  H  H274  1  0.89627080  0.68790581  0.05761649  1
  H  H275  1  0.97203121  0.65461370  0.32865900  1
  O  O276  1  0.83765016  0.61231066  0.42834182  1
  C  C277  1  0.87398672  0.65568107  0.27608455  1
  N  N278  1  0.95053691  0.70785341  0.06084096  1
  O  O279  1  0.95243434  0.66433055  0.26175131  1
  O  O280  1  0.83528856  0.64330152  0.21431225  1
  O  O281  1  0.85417967  0.71054689  0.42880589  1
  O  O282  1  0.52525101  0.50692305  0.36840767  1
  N  N283  1  0.96401647  0.55996031  0.01137608  1
  C  C284  1  0.97038516  0.50947302  0.03555148  1
  O  O285  1  0.68330265  0.52608518  0.28065801  1
  O  O286  1  0.64287039  0.74672761  0.14784419  1
  C  C287  1  0.71955421  0.60817581  0.68748269  1
  Zn  Zn288  1  0.92023249  0.70636118  0.67041785  1
  N  N289  1  0.92055379  0.63129679  0.73277162  1
  H  H290  1  0.69693371  0.61345568  0.76002256  1
  N  N291  1  0.84093196  0.65763928  0.85586272  1
  O  O292  1  0.74758194  0.64455349  0.64093637  1
  C  C293  1  0.82778911  0.71424566  0.82996679  1
  H  H294  1  0.89980986  0.57609173  0.84614709  1
  C  C295  1  0.73213163  0.52807618  0.95732655  1
  C  C296  1  0.88857108  0.61944498  0.81005890  1
  H  H297  1  0.81186376  0.54082820  0.58126796  1
  O  O298  1  0.71709442  0.53602277  0.67259054  1
  O  O299  1  0.78948697  0.50002545  0.95188287  1
  O  O300  1  0.67500338  0.55610602  0.96408550  1
  C  C301  1  0.76600077  0.51224479  0.61368758  1
  N  N302  1  0.98784778  0.65467208  0.58793633  1
  N  N303  1  0.98979868  0.51044635  0.75429641  1
  Zn  Zn304  1  0.98466892  0.57806614  0.65352132  1
  H  H305  1  0.78963175  0.73796780  0.88543106  1
  N  N306  1  0.85099010  0.74447298  0.75838998  1
  N  N307  1  0.63492814  0.93974315  0.30517934  1
  N  N308  1  0.56831399  0.95613260  0.22085863  1
  N  N309  1  0.67336364  0.90921644  0.16220961  1
  N  N310  1  0.86470029  0.86801053  0.22340773  1
  H  H311  1  0.74607441  0.89503331  0.27439025  1
  Zn  Zn312  1  0.91576057  0.89330399  0.10203766  1
  C  C313  1  0.60385795  0.93653508  0.14650202  1
  Zn  Zn314  1  0.62779174  0.95294998  0.44543271  1
  C  C315  1  0.68803623  0.91330930  0.25296027  1
  C  C316  1  0.96477906  0.76509885  0.07088179  1
  H  H317  1  0.90827324  0.94071431  0.28935086  1
  C  C318  1  0.88165933  0.89593881  0.29775875  1
  N  N319  1  0.88629725  0.87067748  0.37895144  1
  C  C320  1  0.86720295  0.81310011  0.39435248  1
  H  H321  1  0.58228098  0.94308871  0.07266809  1
  N  N322  1  0.98981354  0.81310817  0.08055693  1
  N  N323  1  0.84242406  0.76882089  0.34780003  1
  C  C324  1  0.77120401  0.77263993  0.06718294  1
  H  H325  1  0.88398829  0.80862330  0.46871762  1
  Zn  Zn326  1  0.81035636  0.78063202  0.21160790  1
  N  N327  1  0.51496196  0.95597887  0.45930081  1
  C  C328  1  0.63440367  0.80110293  0.46189562  1
  C  C329  1  0.70940429  0.75109035  0.12914671  1
  O  O330  1  0.70174485  0.81558725  0.46302681  1
  O  O331  1  0.56900379  0.78822181  0.46150960  1
  N  N332  1  0.77026007  0.90532828  0.67804995  1
  N  N333  1  0.83935306  0.90151265  0.81844943  1
  Zn  Zn334  1  0.83614365  0.83268136  0.71994288  1
  H  H335  1  0.73578083  0.87152587  0.55380210  1
  C  C336  1  0.72756683  0.91167560  0.60250984  1
  N  N337  1  0.68148797  0.95696143  0.57435130  1
  N  N338  1  0.92618539  0.80313598  0.64742026  1
  C  C339  1  0.87607316  0.89912417  0.89754801  1
  Zn  Zn340  1  0.76290391  0.96977452  0.78267981  1
  O  O341  1  0.53909905  0.89664977  0.72543873  1
  N  N342  1  0.78708799  0.99639000  0.91261722  1
  H  H343  1  0.91738824  0.85839593  0.90442908  1
  C  C344  1  0.98522103  0.83101968  0.62839553  1
  O  O345  1  0.55214849  0.95880556  0.95451028  1
  O  O346  1  0.63770483  0.90017214  0.89422953  1
  C  C347  1  0.82578052  0.97079536  0.96805218  1
  C  C348  1  0.52925835  0.93022864  0.78714011  1
  C  C349  1  0.58047870  0.93067765  0.89010853  1
  N  N350  1  0.87311404  0.92573162  0.98394677  1
  O  O351  1  0.79373960  0.79059053  0.99434686  1
