# generated using pymatgen
data_Zn5H18(C17O9)2
_symmetry_space_group_name_H-M   'P 1'
_cell_length_a   16.37980728
_cell_length_b   19.72372868
_cell_length_c   22.75264718
_cell_angle_alpha   90.00000000
_cell_angle_beta   90.00000000
_cell_angle_gamma   90.00000000
_symmetry_Int_Tables_number   1
_chemical_formula_structural   Zn5H18(C17O9)2
_chemical_formula_sum   'Zn40 H144 C272 O144'
_cell_volume   7350.71762160
_cell_formula_units_Z   8
loop_
 _symmetry_equiv_pos_site_id
 _symmetry_equiv_pos_as_xyz
  1  'x, y, z'
loop_
 _atom_site_type_symbol
 _atom_site_label
 _atom_site_symmetry_multiplicity
 _atom_site_fract_x
 _atom_site_fract_y
 _atom_site_fract_z
 _atom_site_occupancy
  O  O0  1  0.15807260  0.46684700  0.04430923  1
  C  C1  1  0.16354759  0.07805111  0.21620502  1
  C  C2  1  0.11620198  0.05425645  0.16911984  1
  C  C3  1  0.06050246  0.07180761  0.06808662  1
  O  O4  1  0.06125803  0.10422057  0.01981335  1
  C  C5  1  0.49643135  0.19607598  0.07840754  1
  O  O6  1  0.05811777  0.35121490  0.07970573  1
  C  C7  1  0.42728172  0.14528088  0.08582809  1
  C  C8  1  0.22940421  0.25237417  0.15552086  1
  O  O9  1  0.30075383  0.36254282  0.01246695  1
  H  H10  1  0.14516737  0.19103298  0.07806248  1
  O  O11  1  0.23828791  0.27686208  0.10359081  1
  C  C12  1  0.47040503  0.24414924  0.18091030  1
  C  C13  1  0.18728863  0.18309997  0.16619469  1
  C  C14  1  0.41629985  0.08943859  0.04828473  1
  C  C15  1  0.41246863  0.18745273  0.19306288  1
  O  O16  1  0.24533140  0.28579943  0.19756268  1
  C  C17  1  0.14501719  0.16062008  0.11732991  1
  C  C18  1  0.02388420  0.29536843  0.07484351  1
  C  C19  1  0.37587891  0.15328317  0.14082221  1
  C  C20  1  0.19206671  0.14588547  0.21792061  1
  H  H21  1  0.31947299  0.11879961  0.14561488  1
  H  H22  1  0.33058477  0.33209899  0.03440797  1
  C  C23  1  0.10515998  0.09717245  0.12151363  1
  O  O24  1  0.35377654  0.05363948  0.05569599  1
  O  O25  1  0.04376809  0.25691211  0.03244393  1
  Zn  Zn26  1  0.18983263  0.36250067  0.05914302  1
  O  O27  1  0.45681753  0.08142865  0.00112009  1
  H  H28  1  0.11096666  0.45117432  0.02297123  1
  H  H29  1  0.09010287  0.00149300  0.17177856  1
  H  H30  1  0.01459124  0.21674210  0.23974590  1
  H  H31  1  0.47617982  0.28760445  0.21102648  1
  O  O32  1  0.03283256  0.01369321  0.07300350  1
  H  H33  1  0.32815816  0.13545672  0.24862002  1
  O  O34  1  0.36162463  0.20007931  0.44446707  1
  C  C35  1  0.47502453  0.20853522  0.33317698  1
  H  H36  1  0.45194990  0.25942974  0.33803813  1
  C  C37  1  0.34841148  0.00107272  0.37200153  1
  O  O38  1  0.13647652  0.43560474  0.32737392  1
  H  H39  1  0.40336731  0.07518234  0.43004657  1
  C  C40  1  0.04464826  0.01998028  0.39651059  1
  C  C41  1  0.35720774  0.06698804  0.39442333  1
  H  H42  1  0.20276749  0.15035930  0.32325693  1
  C  C43  1  0.05036566  0.27117800  0.34004353  1
  H  H44  1  0.08293944  0.15071355  0.41283656  1
  C  C45  1  0.02768901  0.07819256  0.35552240  1
  O  O46  1  0.28020347  0.23737063  0.37662997  1
  O  O47  1  0.07952342  0.28630085  0.38920381  1
  C  C48  1  0.03514865  0.19576859  0.33077551  1
  C  C49  1  0.30804793  0.11995680  0.37465208  1
  O  O50  1  0.18927515  0.41370712  0.41430981  1
  Zn  Zn51  1  0.19392756  0.30677109  0.41471808  1
  C  C52  1  0.05138036  0.14419278  0.37128655  1
  Zn  Zn53  1  0.43185280  0.29953286  0.47725693  1
  C  C54  1  0.18935814  0.03263934  0.25886591  1
  C  C55  1  0.23981803  0.04382199  0.30761862  1
  H  H56  1  0.34300787  0.23073031  0.26328970  1
  C  C57  1  0.44047405  0.15761925  0.29787903  1
  C  C58  1  0.17816823  0.45158284  0.37088384  1
  C  C59  1  0.24665402  0.11106334  0.33345352  1
  C  C60  1  0.31422042  0.18769395  0.40153592  1
  O  O61  1  0.04260787  0.31339416  0.29949415  1
  O  O62  1  0.09530096  0.02912380  0.43852264  1
  C  C63  1  0.47475505  0.09277677  0.29371578  1
  H  H64  1  0.27059604  0.49849256  0.45893608  1
  H  H65  1  0.43238064  0.48836371  0.25558567  1
  C  C66  1  0.01090424  0.17828992  0.27297773  1
  H  H67  1  0.45029960  0.05412025  0.26301982  1
  C  C68  1  0.37212690  0.17857544  0.25161129  1
  H  H69  1  0.22206444  0.16786372  0.25601706  1
  H  H70  1  0.39162773  0.41118048  0.70183729  1
  C  C71  1  0.02052679  0.46015792  0.59507060  1
  C  C72  1  0.22645594  0.25485143  0.54659158  1
  O  O73  1  0.20051155  0.11216316  0.70574128  1
  C  C74  1  0.36115903  0.37421654  0.67335694  1
  C  C75  1  0.42561980  0.26920839  0.71858874  1
  C  C76  1  0.37106419  0.30328363  0.66935203  1
  C  C77  1  0.25858134  0.36457658  0.59404564  1
  C  C78  1  0.27440882  0.29474884  0.59029956  1
  H  H79  1  0.34813198  0.21107351  0.61979148  1
  O  O80  1  0.18180536  0.28833894  0.51283405  1
  Zn  Zn81  1  0.23099172  0.12287606  0.61861258  1
  C  C82  1  0.14580441  0.35482721  0.70068699  1
  O  O83  1  0.23384654  0.19123468  0.54452692  1
  H  H84  1  0.20535257  0.38300535  0.56993894  1
  C  C85  1  0.30216969  0.40325866  0.63498585  1
  O  O86  1  0.44018154  0.09598494  0.65772403  1
  C  C87  1  0.33328219  0.26470582  0.62554490  1
  H  H88  1  0.36729253  0.38073640  0.53553898  1
  C  C89  1  0.12911067  0.28889512  0.68193086  1
  H  H90  1  0.15710019  0.24720557  0.70862982  1
  C  C91  1  0.28156366  0.47632649  0.63676569  1
  C  C92  1  0.11004011  0.40996859  0.67187629  1
  O  O93  1  0.33847724  0.06045400  0.60348063  1
  O  O94  1  0.40114094  0.39147577  0.50055327  1
  C  C95  1  0.04528209  0.33331163  0.60370609  1
  H  H96  1  0.11911815  0.46077808  0.68853673  1
  C  C97  1  0.39606197  0.04926225  0.63915437  1
  H  H98  1  0.42809570  0.21343128  0.70757162  1
  C  C99  1  0.08036902  0.27925624  0.63270340  1
  C  C100  1  0.05686751  0.39990205  0.62531319  1
  O  O101  1  0.09741298  0.15980346  0.62087147  1
  C  C102  1  0.05963791  0.21097579  0.60579565  1
  C  C103  1  0.22721602  0.06569332  0.73974487  1
  O  O104  1  0.23037982  0.49383873  0.59491642  1
  O  O105  1  0.48634581  0.25125016  0.55980746  1
  H  H106  1  0.48406006  0.38137146  0.58606569  1
  O  O107  1  0.01336562  0.20567139  0.56216017  1
  H  H108  1  0.01143267  0.32775290  0.56214424  1
  H  H109  1  0.48998318  0.29082061  0.71882869  1
  H  H110  1  0.46905696  0.04734593  0.54330860  1
  Zn  Zn111  1  0.44757138  0.48849658  0.51123358  1
  H  H112  1  0.25501920  0.32262043  0.74764808  1
  C  C113  1  0.49833891  0.49494404  0.65176564  1
  H  H114  1  0.17739727  0.01575644  0.62982067  1
  C  C115  1  0.34506154  0.23353851  0.81273634  1
  C  C116  1  0.04488562  0.31373460  0.89295461  1
  O  O117  1  0.24912318  0.07562017  0.79054253  1
  H  H118  1  0.41935714  0.38788767  0.76586955  1
  C  C119  1  0.27023714  0.20408827  0.90574520  1
  C  C120  1  0.30570554  0.25690126  0.86395566  1
  H  H121  1  0.16196509  0.23671323  0.78677769  1
  C  C122  1  0.30499854  0.32592459  0.87672689  1
  C  C123  1  0.14945183  0.34343000  0.80568955  1
  O  O124  1  0.28633207  0.13395362  0.89461749  1
  C  C125  1  0.07482670  0.26030904  0.85929599  1
  O  O126  1  0.29722042  0.45973406  0.90077654  1
  C  C127  1  0.34328438  0.37478544  0.84193940  1
  C  C128  1  0.33566917  0.44960175  0.85501820  1
  C  C129  1  0.05055384  0.18660489  0.86393537  1
  H  H130  1  0.34080621  0.18042893  0.79619392  1
  C  C131  1  0.03462790  0.44321454  0.91746266  1
  C  C132  1  0.38271843  0.28375015  0.77714034  1
  C  C133  1  0.12083014  0.39764962  0.84010087  1
  O  O134  1  0.23619057  0.22039998  0.94903525  1
  Zn  Zn135  1  0.39962308  0.09612854  0.92050856  1
  O  O136  1  0.49463947  0.43413301  0.96952530  1
  H  H137  1  0.14444000  0.44873458  0.83233847  1
  H  H138  1  0.27902800  0.34657702  0.91896614  1
  C  C139  1  0.38630925  0.35309360  0.79371851  1
  C  C140  1  0.13327860  0.27502797  0.81502620  1
  Zn  Zn141  1  0.18007669  0.07393409  0.87054017  1
  C  C142  1  0.06797596  0.38130002  0.88415953  1
  O  O143  1  0.09020486  0.14279875  0.83706194  1
  O  O144  1  0.38099722  0.49518767  0.83287571  1
  Zn  Zn145  1  0.36723296  0.44074271  0.98345596  1
  H  H146  1  0.48749284  0.30991431  0.93446199  1
  O  O147  1  0.48250762  0.18520854  0.90929532  1
  H  H148  1  0.00997971  0.34879667  0.75474448  1
  H  H149  1  0.22930549  0.41437794  0.75612958  1
  C  C150  1  0.20556746  0.36072167  0.75158274  1
  O  O151  1  0.37648576  0.90536884  0.22428250  1
  C  C152  1  0.35536164  0.86882854  0.18178181  1
  O  O153  1  0.05318781  0.74698567  0.06595124  1
  H  H154  1  0.44154823  0.67676793  0.15639613  1
  C  C155  1  0.46373219  0.62817634  0.16417271  1
  Zn  Zn156  1  0.09925007  0.54343930  0.08834737  1
  C  C157  1  0.24438700  0.70950096  0.15303969  1
  Zn  Zn158  1  0.33491233  0.94574207  0.06201710  1
  C  C159  1  0.45522805  0.52443747  0.22305216  1
  O  O160  1  0.20570218  0.60109409  0.11496773  1
  H  H161  1  0.31045303  0.78188642  0.09868313  1
  C  C162  1  0.31124347  0.80464517  0.19493120  1
  Zn  Zn163  1  0.08856468  0.91967863  0.05234600  1
  C  C164  1  0.29198700  0.76644727  0.14355457  1
  C  C165  1  0.23168684  0.65763806  0.10357498  1
  H  H166  1  0.18352029  0.64097781  0.20697704  1
  H  H167  1  0.34481409  0.66859453  0.23767670  1
  C  C168  1  0.42772070  0.59107168  0.20970077  1
  O  O169  1  0.37332115  0.88444847  0.12944186  1
  C  C170  1  0.21371981  0.68725152  0.20619194  1
  O  O171  1  0.25818732  0.67565325  0.05479316  1
  O  O172  1  0.21466198  0.93768983  0.04840027  1
  O  O173  1  0.35928617  0.54131023  0.01919447  1
  O  O174  1  0.06621967  0.52741151  0.18485349  1
  C  C175  1  0.01486717  0.73647147  0.16538757  1
  H  H176  1  0.07186188  0.64610961  0.13401207  1
  O  O177  1  0.04221128  0.84139544  0.11314684  1
  C  C178  1  0.03729319  0.77664695  0.11143439  1
  C  C179  1  0.00386956  0.62905311  0.21662651  1
  C  C180  1  0.03444153  0.66801961  0.16956079  1
  H  H181  1  0.31906139  0.55583957  0.04844454  1
  C  C182  1  0.02281919  0.55533189  0.22159380  1
  H  H183  1  0.22314576  0.94270639  0.00682065  1
  C  C184  1  0.10596570  0.70979276  0.42842843  1
  O  O185  1  0.40880418  0.89613676  0.36601441  1
  O  O186  1  0.44617493  0.95851712  0.44245392  1
  C  C187  1  0.33884690  0.61110394  0.48264174  1
  H  H188  1  0.16950202  0.98093694  0.25121236  1
  O  O189  1  0.23492105  0.78311515  0.44630804  1
  C  C190  1  0.40516347  0.94777064  0.39638734  1
  H  H191  1  0.28622235  0.81625929  0.28849018  1
  H  H192  1  0.30073848  0.70395270  0.39160132  1
  C  C193  1  0.18576567  0.57253073  0.33696160  1
  C  C194  1  0.47239272  0.71102360  0.29201544  1
  C  C195  1  0.25507696  0.53451468  0.42702371  1
  C  C196  1  0.27160279  0.65415363  0.38953136  1
  O  O197  1  0.18651881  0.87296566  0.39875047  1
  H  H198  1  0.11692875  0.67941391  0.29130602  1
  O  O199  1  0.01357660  0.96120421  0.39630976  1
  C  C200  1  0.18265121  0.81202824  0.41396118  1
  C  C201  1  0.22061514  0.63653685  0.34321923  1
  H  H202  1  0.17606598  0.73958198  0.33847583  1
  H  H203  1  0.43402514  0.55574713  0.35865138  1
  C  C204  1  0.28649102  0.60071444  0.42945966  1
  C  C205  1  0.10536165  0.77221738  0.39961376  1
  C  C206  1  0.45947859  0.60548501  0.35123579  1
  H  H207  1  0.15968778  0.69193115  0.45289588  1
  H  H208  1  0.15088367  0.55887994  0.29667897  1
  C  C209  1  0.43829631  0.64676311  0.30296084  1
  H  H210  1  0.28983778  0.93822765  0.30823741  1
  C  C211  1  0.18246670  0.69593170  0.30594322  1
  C  C212  1  0.03571739  0.67073319  0.42122402  1
  H  H213  1  0.04006521  0.84563093  0.34772334  1
  C  C214  1  0.20504226  0.52339580  0.37842461  1
  O  O215  1  0.10585568  0.58381211  0.48253027  1
  H  H216  1  0.32753255  0.58771740  0.27338782  1
  C  C217  1  0.04121392  0.79422135  0.36391564  1
  Zn  Zn218  1  0.47530139  0.89632798  0.28275658  1
  Zn  Zn219  1  0.16895873  0.95058253  0.45966325  1
  O  O220  1  0.36491304  0.67160586  0.49023008  1
  C  C221  1  0.37423770  0.62380816  0.25721062  1
  H  H222  1  0.45780483  0.74082896  0.25136062  1
  C  C223  1  0.04167138  0.60264139  0.45311754  1
  C  C224  1  0.29208680  0.98979951  0.32780633  1
  C  C225  1  0.28269756  0.78388171  0.25033950  1
  C  C226  1  0.23517266  0.72679169  0.25620601  1
  C  C227  1  0.01656870  0.83062747  0.68336646  1
  Zn  Zn228  1  0.25593294  0.74514483  0.53764931  1
  H  H229  1  0.03666113  0.78900560  0.71304552  1
  C  C230  1  0.42381874  0.97803689  0.65655582  1
  Zn  Zn231  1  0.15283642  0.56946371  0.56782629  1
  O  O232  1  0.35233352  0.56496612  0.51741908  1
  O  O233  1  0.49187772  0.52848662  0.69660591  1
  H  H234  1  0.36022560  0.92871932  0.58892566  1
  C  C235  1  0.23670889  0.86035602  0.68557112  1
  C  C236  1  0.17363841  0.88724711  0.58644935  1
  O  O237  1  0.15097946  0.93059185  0.54919422  1
  C  C238  1  0.40059800  0.92174778  0.62606311  1
  O  O239  1  0.45637123  0.74676470  0.59714463  1
  C  C240  1  0.41387339  0.80159630  0.59371187  1
  H  H241  1  0.23881213  0.80742376  0.67556431  1
  C  C242  1  0.43416335  0.85649208  0.63563467  1
  H  H243  1  0.27316404  0.63943873  0.57787864  1
  O  O244  1  0.16673974  0.82635800  0.57589683  1
  O  O245  1  0.29883085  0.51912531  0.67401368  1
  C  C246  1  0.20371153  0.90853292  0.64781746  1
  O  O247  1  0.35974408  0.81267340  0.55617100  1
  O  O248  1  0.21987475  0.65947204  0.57682752  1
  C  C249  1  0.27546867  0.88275026  0.73666143  1
  Zn  Zn250  1  0.49883983  0.69093277  0.52651484  1
  C  C251  1  0.19712267  0.97721816  0.66204610  1
  C  C252  1  0.23152013  0.99413738  0.71607434  1
  C  C253  1  0.02403439  0.89821439  0.70084015  1
  O  O254  1  0.03753677  0.52011740  0.61209526  1
  C  C255  1  0.47922064  0.96805978  0.70149461  1
  O  O256  1  0.46391244  0.50989626  0.60447794  1
  C  C257  1  0.48865081  0.84451928  0.68215576  1
  H  H258  1  0.34088671  0.78391846  0.74982651  1
  C  C259  1  0.47743265  0.90506975  0.84252697  1
  C  C260  1  0.14490912  0.79463669  0.91431934  1
  C  C261  1  0.25395712  0.75040036  0.84864949  1
  C  C262  1  0.15709341  0.85915464  0.89305260  1
  O  O263  1  0.42944856  0.70108766  0.95216107  1
  C  C264  1  0.21929209  0.87101430  0.84958126  1
  H  H265  1  0.38168162  0.85537523  0.79128246  1
  O  O266  1  0.24254487  0.63147383  0.90906664  1
  H  H267  1  0.09882878  0.78193868  0.94863819  1
  C  C268  1  0.43207596  0.88473807  0.88999594  1
  H  H269  1  0.31153447  0.96911084  0.78982401  1
  H  H270  1  0.39663349  0.79875160  0.94626609  1
  C  C271  1  0.32434682  0.83258437  0.77522186  1
  C  C272  1  0.19327974  0.74310472  0.89026988  1
  C  C273  1  0.26447597  0.81829365  0.82700841  1
  H  H274  1  0.29279858  0.70593494  0.83277151  1
  O  O275  1  0.34462174  0.63653387  0.78547874  1
  O  O276  1  0.00437223  0.70988971  0.87417814  1
  O  O277  1  0.06279285  0.92289320  0.95517017  1
  C  C278  1  0.18190931  0.67180928  0.91475419  1
  H  H279  1  0.11124444  0.88249588  0.77626623  1
  H  H280  1  0.34458504  0.62488740  0.82502606  1
  H  H281  1  0.47312076  0.95761740  0.83079540  1
  C  C282  1  0.11526606  0.92076172  0.91398965  1
  H  H283  1  0.22773909  0.92464847  0.83749734  1
  C  C284  1  0.38305689  0.94084620  0.91907421  1
  O  O285  1  0.34281103  0.92674581  0.96297994  1
  C  C286  1  0.43419940  0.81596645  0.90831182  1
  C  C287  1  0.47905477  0.76893932  0.87676818  1
  H  H288  1  0.04547446  0.80322416  0.82493869  1
  Zn  Zn289  1  0.32955006  0.63468691  0.98357598  1
  O  O290  1  0.12748123  0.97503258  0.88688137  1
  C  C291  1  0.47569366  0.70234109  0.90674478  1
  O  O292  1  0.05982559  0.50135147  0.90677802  1
  Zn  Zn293  1  0.00940204  0.60200000  0.89189612  1
  O  O294  1  0.11740651  0.65655860  0.93772478  1
  O  O295  1  0.37179714  0.99436384  0.89112601  1
  C  C296  1  0.27912739  0.95195327  0.75140017  1
  C  C297  1  0.05731358  0.91491506  0.76374046  1
  H  H298  1  0.07771655  0.96855637  0.76762966  1
  Zn  Zn299  1  0.37375729  0.54963052  0.75320216  1
  C  C300  1  0.74183921  0.16730475  0.15097954  1
  C  C301  1  0.93702064  0.31046440  0.16654786  1
  C  C302  1  0.69687444  0.12583246  0.18718908  1
  O  O303  1  0.76854683  0.42537586  0.12617445  1
  Zn  Zn304  1  0.50584456  0.13505746  0.15251620  1
  C  C305  1  0.54845421  0.42720794  0.21084315  1
  C  C306  1  0.60449606  0.27055336  0.13443903  1
  H  H307  1  0.76275701  0.21585472  0.16509690  1
  H  H308  1  0.76910223  0.06216344  0.03126904  1
  C  C309  1  0.51589709  0.49597361  0.18971843  1
  C  C310  1  0.91626250  0.17733301  0.17810348  1
  C  C311  1  0.76524814  0.14694955  0.09404352  1
  C  C312  1  0.89274237  0.29032811  0.21564280  1
  C  C313  1  0.95709963  0.19922717  0.12770299  1
  C  C314  1  0.66856438  0.06249260  0.16566918  1
  C  C315  1  0.87977916  0.22146192  0.22056774  1
  C  C316  1  0.80982279  0.19323743  0.05538294  1
  Zn  Zn317  1  0.73975474  0.34497663  0.06299488  1
  O  O318  1  0.62213323  0.40916397  0.20140950  1
  C  C319  1  0.52835493  0.23312288  0.13173035  1
  C  C320  1  0.74706413  0.08269870  0.07588833  1
  H  H321  1  0.71518218  0.49652497  0.19954099  1
  C  C322  1  0.69633401  0.04250338  0.11233297  1
  O  O323  1  0.84828843  0.16839441  0.01307285  1
  O  O324  1  0.81639602  0.25398331  0.07122580  1
  C  C325  1  0.93301798  0.10381916  0.19848482  1
  O  O326  1  0.64373419  0.27297765  0.18141326  1
  H  H327  1  0.94430215  0.36572353  0.16803007  1
  C  C328  1  0.67100103  0.14971838  0.24962276  1
  H  H329  1  0.87478832  0.07348706  0.19949222  1
  C  C330  1  0.97098816  0.26948470  0.12293252  1
  C  C331  1  0.81777582  0.47346547  0.11768916  1
  O  O332  1  0.62890508  0.29237049  0.08540054  1
  O  O333  1  0.88081782  0.47302464  0.08774543  1
  H  H334  1  0.62189767  0.03097930  0.19037999  1
  H  H335  1  0.97723064  0.16419257  0.09391596  1
  H  H336  1  0.97172661  0.07568547  0.16506920  1
  H  H337  1  0.52732686  0.20339682  0.03452677  1
  O  O338  1  0.50592545  0.39652307  0.24484520  1
  H  H339  1  0.74454019  0.02730007  0.24605996  1
  O  O340  1  0.83936087  0.23890428  0.42568490  1
  O  O341  1  0.79349844  0.32424838  0.28195486  1
  C  C342  1  0.83277721  0.06622226  0.37647934  1
  C  C343  1  0.58154629  0.01051728  0.32629293  1
  C  C344  1  0.76276813  0.05487878  0.28575722  1
  C  C345  1  0.84596246  0.17617991  0.42800849  1
  C  C346  1  0.98693261  0.06566614  0.30289636  1
  O  O347  1  0.72860866  0.39851296  0.42601704  1
  H  H348  1  0.74247324  0.22189698  0.34288158  1
  O  O349  1  0.89159251  0.14496283  0.46538875  1
  C  C350  1  0.54168209  0.19148696  0.37009827  1
  C  C351  1  0.76047772  0.16830706  0.33762383  1
  C  C352  1  0.68840725  0.41776940  0.38307346  1
  H  H353  1  0.62841692  0.11962501  0.39382189  1
  O  O354  1  0.53768811  0.29866937  0.42005574  1
  O  O355  1  0.64528962  0.23705760  0.42934968  1
  O  O356  1  0.65356759  0.37512841  0.35035380  1
  C  C357  1  0.80798330  0.02564983  0.33132819  1
  Zn  Zn358  1  0.74541882  0.29276052  0.45700113  1
  C  C359  1  0.73552346  0.12192844  0.29312670  1
  C  C360  1  0.80984510  0.13628818  0.37853839  1
  C  C361  1  0.57565526  0.24347593  0.41074415  1
  H  H362  1  0.61657021  0.47764528  0.28776251  1
  H  H363  1  0.87687343  0.04389495  0.40688611  1
  O  O364  1  0.96560509  0.41401607  0.39123501  1
  C  C365  1  0.53965784  0.07790908  0.33182606  1
  C  C366  1  0.57312875  0.12695265  0.36999239  1
  C  C367  1  0.68511971  0.49217813  0.36728651  1
  Zn  Zn368  1  0.99668880  0.42580288  0.30779746  1
  Zn  Zn369  1  0.98610716  0.46434739  0.46205373  1
  C  C370  1  0.97252802  0.11504230  0.26044527  1
  H  H371  1  0.96137217  0.01612161  0.29147725  1
  H  H372  1  0.61200101  0.12377681  0.25757848  1
  O  O373  1  0.88501994  0.40102402  0.26027561  1
  H  H374  1  0.66425603  0.20664340  0.25238638  1
  H  H375  1  0.99393966  0.37600705  0.40385186  1
  Zn  Zn376  1  0.66808028  0.33910181  0.25772257  1
  C  C377  1  0.85510405  0.34343422  0.25568996  1
  H  H378  1  0.84728245  0.19405478  0.25895553  1
  C  C379  1  0.86982928  0.44621997  0.69034927  1
  H  H380  1  0.66929007  0.26234368  0.67259470  1
  H  H381  1  0.98858943  0.00493108  0.67828455  1
  H  H382  1  0.74871310  0.39954866  0.57475089  1
  O  O383  1  0.91773274  0.05358215  0.59896374  1
  O  O384  1  0.58967670  0.20400304  0.60738185  1
  H  H385  1  0.90549971  0.27591886  0.68121535  1
  C  C386  1  0.63374416  0.31032679  0.66740718  1
  O  O387  1  0.82300447  0.21554354  0.60520456  1
  C  C388  1  0.88229741  0.32589604  0.67084488  1
  O  O389  1  0.97943275  0.44664636  0.55095204  1
  C  C390  1  0.57314607  0.31551997  0.62483071  1
  C  C391  1  0.60487569  0.42644072  0.69990452  1
  C  C392  1  0.90187098  0.38276976  0.70461813  1
  C  C393  1  0.64720478  0.36520468  0.70424117  1
  C  C394  1  0.79956734  0.27252452  0.59076029  1
  C  C395  1  0.54874228  0.25469872  0.59092179  1
  C  C396  1  0.79375703  0.39658825  0.61041920  1
  C  C397  1  0.82410103  0.33347301  0.62580603  1
  O  O398  1  0.74399869  0.28646795  0.55477413  1
  Zn  Zn399  1  0.90604123  0.14309893  0.55700450  1
  O  O400  1  0.66261342  0.03485848  0.61554817  1
  C  C401  1  0.54615862  0.42968262  0.65650807  1
  H  H402  1  0.61196520  0.46991267  0.73177170  1
  C  C403  1  0.81676286  0.45322567  0.64364268  1
  H  H404  1  0.89222918  0.48764424  0.71441374  1
  Zn  Zn405  1  0.55588857  0.09997847  0.60214037  1
  C  C406  1  0.53314504  0.37821503  0.61788866  1
  O  O407  1  0.51850680  0.06193002  0.52303536  1
  H  H408  1  0.50361712  0.01496499  0.72037786  1
  H  H409  1  0.74066566  0.30817428  0.74877920  1
  C  C410  1  0.53160073  0.19274697  0.86676377  1
  H  H411  1  0.64721283  0.44743804  0.84533583  1
  C  C412  1  0.86913755  0.28558588  0.79795856  1
  H  H413  1  0.63985545  0.23981615  0.78529851  1
  H  H414  1  0.75070328  0.40001017  0.76056721  1
  C  C415  1  0.62433960  0.39518072  0.84810500  1
  H  H416  1  0.97467119  0.43547589  0.77610737  1
  O  O417  1  0.73125942  0.16411593  0.87227472  1
  O  O418  1  0.79859344  0.14826290  0.78967148  1
  H  H419  1  0.74173210  0.27698036  0.91501773  1
  Zn  Zn420  1  0.66004794  0.08182833  0.86036697  1
  C  C421  1  0.78170307  0.18430321  0.82993006  1
  O  O422  1  0.80519669  0.46604102  0.95170320  1
  C  C423  1  0.89544079  0.35133127  0.80608280  1
  H  H424  1  0.88352924  0.44945980  0.85676248  1
  H  H425  1  0.59396426  0.07247146  0.77576517  1
  C  C426  1  0.61539167  0.27950874  0.81514314  1
  C  C427  1  0.81099191  0.25765773  0.83541790  1
  O  O428  1  0.63047862  0.04231694  0.75369923  1
  C  C429  1  0.78652761  0.29539892  0.88413509  1
  C  C430  1  0.81029669  0.36302054  0.89048016  1
  C  C431  1  0.78431095  0.40566223  0.94020340  1
  O  O432  1  0.98883747  0.16937737  0.89565398  1
  C  C433  1  0.56111964  0.26513161  0.86007083  1
  C  C434  1  0.64403488  0.34809620  0.80719826  1
  O  O435  1  0.54290577  0.14795283  0.83065998  1
  C  C436  1  0.86626007  0.39420980  0.85116174  1
  O  O437  1  0.73566364  0.37257961  0.97320018  1
  C  C438  1  0.54045950  0.44103267  0.92604635  1
  C  C439  1  0.56109497  0.38095577  0.89017236  1
  C  C440  1  0.53201993  0.31587675  0.89830947  1
  O  O441  1  0.57368991  0.49718040  0.91410483  1
  O  O442  1  0.98512778  0.42684718  0.95554751  1
  C  C443  1  0.70730927  0.35717650  0.75569533  1
  H  H444  1  0.55220112  0.03478479  0.92923475  1
  O  O445  1  0.59396570  0.01206796  0.90961560  1
  H  H446  1  0.89132479  0.25553087  0.76056002  1
  Zn  Zn447  1  0.96879345  0.18145872  0.98646642  1
  H  H448  1  0.68542279  0.04719126  0.77149065  1
  O  O449  1  0.75499021  0.00260073  0.84495872  1
  C  C450  1  0.95554654  0.38320049  0.76167591  1
  H  H451  1  0.99934605  0.30567607  0.92520257  1
  O  O452  1  0.60589550  0.59865394  0.04391722  1
  Zn  Zn453  1  0.62503051  0.76315443  0.02132101  1
  C  C454  1  0.79002599  0.54396106  0.13450694  1
  H  H455  1  0.68831468  0.71597079  0.17074412  1
  C  C456  1  0.81455528  0.59938962  0.10257491  1
  C  C457  1  0.71156671  0.66453658  0.16167608  1
  H  H458  1  0.85924578  0.60120301  0.06556409  1
  C  C459  1  0.69243952  0.60628234  0.19391432  1
  C  C460  1  0.55628419  0.63164642  0.07577756  1
  O  O461  1  0.62160211  0.94403405  0.12278754  1
  O  O462  1  0.53770420  0.69175900  0.06823118  1
  C  C463  1  0.96540601  0.76778877  0.20438802  1
  O  O464  1  0.69045030  0.95323172  0.04067980  1
  C  C465  1  0.73071560  0.54507676  0.17865341  1
  H  H466  1  0.59395436  0.50990186  0.11247913  1
  O  O467  1  0.71947384  0.76151108  0.08121119  1
  H  H468  1  0.59467513  0.87894028  0.05074448  1
  C  C469  1  0.78088059  0.72151838  0.08471609  1
  C  C470  1  0.66794468  0.97274113  0.09053373  1
  C  C471  1  0.77015729  0.65713637  0.11798695  1
  C  C472  1  0.52147450  0.59494419  0.12880900  1
  H  H473  1  0.95129825  0.82164964  0.19412939  1
  O  O474  1  0.84727931  0.73432191  0.05973006  1
  C  C475  1  0.54675929  0.52865126  0.14057699  1
  H  H476  1  0.57724991  0.56801268  0.22653867  1
  C  C477  1  0.62593861  0.60434655  0.24027228  1
  O  O478  1  0.58184557  0.85986020  0.01310884  1
  H  H479  1  0.59522888  0.65514051  0.24338222  1
  Zn  Zn480  1  0.95142690  0.67902008  0.02678054  1
  H  H481  1  0.96817942  0.56659811  0.10664937  1
  O  O482  1  0.98649338  0.58459179  0.07037808  1
  Zn  Zn483  1  0.90350639  0.50650038  0.00162177  1
  O  O484  1  0.78842690  0.71267781  0.42610516  1
  O  O485  1  0.97963814  0.56667142  0.45239662  1
  O  O486  1  0.85394731  0.92347932  0.28444269  1
  C  C487  1  0.95622595  0.66059292  0.25887505  1
  C  C488  1  0.77344255  0.65140007  0.43507644  1
  H  H489  1  0.89066161  0.81519698  0.30651402  1
  C  C490  1  0.64753409  0.51406431  0.31589577  1
  O  O491  1  0.57026029  0.82200905  0.27085835  1
  H  H492  1  0.70338499  0.68239132  0.32224823  1
  Zn  Zn493  1  0.69059540  0.88817568  0.38814039  1
  C  C494  1  0.70542623  0.62810762  0.33442003  1
  O  O495  1  0.63039358  0.99301487  0.36497991  1
  O  O496  1  0.91525399  0.82826340  0.47377773  1
  C  C497  1  0.83243241  0.94797369  0.32821383  1
  H  H498  1  0.55971889  0.88452807  0.43823101  1
  C  C499  1  0.59385868  0.78597757  0.31271743  1
  C  C500  1  0.73464791  0.60419825  0.39047826  1
  O  O501  1  0.82253914  0.91032442  0.37770290  1
  C  C502  1  0.66004832  0.58222043  0.30088180  1
  O  O503  1  0.57209894  0.61848805  0.48843902  1
  H  H504  1  0.84690617  0.73435631  0.32567370  1
  C  C505  1  0.90422856  0.76142443  0.31072430  1
  O  O506  1  0.79421998  0.62974781  0.48385593  1
  O  O507  1  0.65349100  0.79914055  0.34492040  1
  O  O508  1  0.56173844  0.97454013  0.28358351  1
  H  H509  1  0.91685484  0.65513624  0.38485775  1
  C  C510  1  0.55682324  0.69051354  0.38007122  1
  C  C511  1  0.54094732  0.58642373  0.44479083  1
  Zn  Zn512  1  0.91326499  0.92972990  0.44646063  1
  C  C513  1  0.96979351  0.69003977  0.38763359  1
  C  C514  1  0.97261109  0.75206697  0.35785457  1
  H  H515  1  0.60141460  0.70759530  0.41204308  1
  C  C516  1  0.72578219  0.53497767  0.40625305  1
  C  C517  1  0.53940652  0.72779944  0.32866289  1
  C  C518  1  0.94133306  0.72986888  0.25474681  1
  H  H519  1  0.96168198  0.80543941  0.45975303  1
  H  H520  1  0.93441485  0.63037549  0.29545619  1
  O  O521  1  0.60995292  0.88997393  0.45753625  1
  O  O522  1  0.53112865  0.52419948  0.44776223  1
  Zn  Zn523  1  0.56763629  0.98927281  0.47150408  1
  Zn  Zn524  1  0.85762747  0.74513664  0.49839614  1
  O  O525  1  0.99296350  0.52490945  0.26511298  1
  C  C526  1  0.51903854  0.63050013  0.38978871  1
  H  H527  1  0.74289692  0.51586233  0.44941000  1
  C  C528  1  0.98923940  0.95106290  0.66552452  1
  H  H529  1  0.77848085  0.96220021  0.68547703  1
  C  C530  1  0.74959778  0.91675033  0.66763316  1
  C  C531  1  0.65242576  0.73977122  0.58251914  1
  O  O532  1  0.87893582  0.97944402  0.53091079  1
  O  O533  1  0.66833096  0.67933132  0.59917260  1
  C  C534  1  0.95324977  0.74179455  0.61597540  1
  H  H535  1  0.87845216  0.85577282  0.74327514  1
  C  C536  1  0.67559243  0.86584621  0.58563022  1
  C  C537  1  0.75810264  0.85166581  0.69155146  1
  O  O538  1  0.72296782  0.51977977  0.58886503  1
  H  H539  1  0.74168196  0.73965368  0.68417348  1
  O  O540  1  0.81347852  0.57699212  0.64036527  1
  C  C541  1  0.72792511  0.78975358  0.66509422  1
  Zn  Zn542  1  0.68904222  0.60042345  0.53774274  1
  H  H543  1  0.63970885  0.87024761  0.54307171  1
  Zn  Zn544  1  0.93711622  0.60029780  0.63907138  1
  H  H545  1  0.90933803  0.85006409  0.55578555  1
  C  C546  1  0.95170478  0.93472554  0.61169389  1
  C  C547  1  0.68777948  0.80243731  0.61191298  1
  C  C548  1  0.81121106  0.84219610  0.74801114  1
  H  H549  1  0.88940708  0.71514318  0.71385170  1
  O  O550  1  0.89397351  0.72459499  0.58506745  1
  C  C551  1  0.96723664  0.81562251  0.63349417  1
  O  O552  1  0.61506229  0.74722518  0.53509794  1
  C  C553  1  0.78034477  0.52236213  0.62803087  1
  C  C554  1  0.94023049  0.86579223  0.59609851  1
  C  C555  1  0.70621420  0.92071240  0.61520755  1
  O  O556  1  0.99933340  0.69606145  0.63760774  1
  H  H557  1  0.51524778  0.79410098  0.69061811  1
  O  O558  1  0.96798535  0.60527229  0.73060473  1
  C  C559  1  0.69033373  0.99046292  0.58339496  1
  H  H560  1  0.62352838  0.85475141  0.74466301  1
  C  C561  1  0.51110142  0.90307227  0.71261807  1
  C  C562  1  0.91690554  0.99315534  0.57789758  1
  O  O563  1  0.68604714  0.99534976  0.53068355  1
  C  C564  1  0.85446028  0.91264328  0.85555029  1
  O  O565  1  0.93013005  0.55988843  0.81452182  1
  O  O566  1  0.66225621  0.74029440  0.93045674  1
  C  C567  1  0.86797166  0.85192869  0.88762782  1
  O  O568  1  0.72894008  0.91904052  0.90533032  1
  H  H569  1  0.82109813  0.83108558  0.92119103  1
  H  H570  1  0.78279134  0.87696673  0.78084263  1
  C  C571  1  0.80499312  0.77036224  0.77391172  1
  O  O572  1  0.92176823  0.73537609  0.94820515  1
  H  H573  1  0.81705153  0.60689123  0.86836709  1
  C  C574  1  0.93306489  0.81356327  0.86941970  1
  H  H575  1  0.89677051  0.98819277  0.79865974  1
  O  O576  1  0.70964099  0.63987443  0.93359299  1
  C  C577  1  0.52647918  0.78892956  0.82646201  1
  C  C578  1  0.77619840  0.94783919  0.86804543  1
  H  H579  1  0.86144373  0.59830626  0.95267763  1
  C  C580  1  0.95631689  0.74802938  0.90013075  1
  C  C581  1  0.75897323  0.76853745  0.82406415  1
  Zn  Zn582  1  0.62750337  0.93384143  0.96036043  1
  H  H583  1  0.71884432  0.81190486  0.83535415  1
  C  C584  1  0.70957649  0.69880163  0.90890802  1
  C  C585  1  0.76475553  0.70812709  0.85761969  1
  C  C586  1  0.85833773  0.65592966  0.78954316  1
  C  C587  1  0.81468016  0.65253101  0.84062981  1
  C  C588  1  0.91232017  0.93722793  0.81521804  1
  O  O589  1  0.92312977  0.59422472  0.96384622  1
  C  C590  1  0.92262610  0.60105931  0.77494473  1
  Zn  Zn591  1  0.58894647  0.58757235  0.95185841  1
  C  C592  1  0.99076353  0.83643404  0.82859810  1
  H  H593  1  0.55648003  0.75046565  0.80046667  1
  H  H594  1  0.61016846  0.93589898  0.77521529  1
  C  C595  1  0.98379795  0.90081508  0.80393923  1
  C  C596  1  0.52830756  0.85791138  0.81374722  1
  O  O597  1  0.51322365  0.64958353  0.89185522  1
  C  C598  1  0.57710568  0.88938714  0.76216630  1
  C  C599  1  0.85357167  0.71436784  0.75484900  1
