# generated using pymatgen
data_Cu2H3(C3O2)3
_symmetry_space_group_name_H-M   'P 1'
_cell_length_a   24.73292734
_cell_length_b   17.05214316
_cell_length_c   12.27979227
_cell_angle_alpha   90.00000000
_cell_angle_beta   90.00000000
_cell_angle_gamma   90.00000000
_symmetry_Int_Tables_number   1
_chemical_formula_structural   Cu2H3(C3O2)3
_chemical_formula_sum   'Cu32 H48 C144 O96'
_cell_volume   5178.99524038
_cell_formula_units_Z   16
loop_
 _symmetry_equiv_pos_site_id
 _symmetry_equiv_pos_as_xyz
  1  'x, y, z'
loop_
 _atom_site_type_symbol
 _atom_site_label
 _atom_site_symmetry_multiplicity
 _atom_site_fract_x
 _atom_site_fract_y
 _atom_site_fract_z
 _atom_site_occupancy
  C  C0  1  0.03098901  0.17749983  0.05387234  1
  C  C1  1  0.03139944  0.22136206  0.23951143  1
  C  C2  1  0.03974844  0.16240156  0.16546152  1
  H  H3  1  0.05670676  0.10720981  0.19919116  1
  O  O4  1  0.03781530  0.14323585  0.40841497  1
  O  O5  1  0.47864201  0.16400474  0.41307323  1
  C  C6  1  0.25853101  0.21327293  0.25807090  1
  C  C7  1  0.26617844  0.07698092  0.18707666  1
  C  C8  1  0.25813423  0.02225879  0.10446506  1
  Cu  Cu9  1  0.45488814  0.07089385  0.47046951  1
  C  C10  1  0.48415684  0.14918740  0.14333962  1
  C  C11  1  0.24339289  0.15049152  0.17339347  1
  O  O12  1  0.39268847  0.17692349  0.21189461  1
  C  C13  1  0.43065807  0.12818924  0.19629959  1
  H  H14  1  0.29155036  0.06490452  0.25663089  1
  C  C15  1  0.20718168  0.16495702  0.09011820  1
  O  O16  1  0.42899591  0.06534060  0.24249469  1
  C  C17  1  0.04090053  0.21102165  0.36410658  1
  O  O18  1  0.29631091  0.19920473  0.32786506  1
  H  H19  1  0.18555930  0.21774451  0.08498749  1
  C  C20  1  0.19592769  0.10727465  0.01013154  1
  Cu  Cu21  1  0.36726870  0.23782195  0.33021271  1
  C  C22  1  0.21983636  0.03320168  0.02197449  1
  O  O23  1  0.04770638  0.04742808  0.00846658  1
  O  O24  1  0.14090925  0.19877784  0.92710302  1
  O  O25  1  0.08717391  0.03915998  0.55186877  1
  Cu  Cu26  1  0.08553098  0.18714049  0.76226216  1
  C  C27  1  0.15988932  0.13114405  0.92016407  1
  O  O28  1  0.03483259  0.13414581  0.87393510  1
  O  O29  1  0.20058355  0.16958726  0.62221937  1
  O  O30  1  0.15218702  0.08744291  0.83865728  1
  Cu  Cu31  1  0.03252704  0.11620448  0.56651198  1
  O  O32  1  0.38913038  0.01996546  0.50272383  1
  C  C33  1  0.03992250  0.11632570  0.97291449  1
  C  C34  1  0.17676432  0.22880516  0.61553730  1
  H  H35  1  0.32173454  0.01144383  0.64050196  1
  H  H36  1  0.27592321  0.23972932  0.51894151  1
  O  O37  1  0.13541832  0.24688905  0.68712801  1
  C  C38  1  0.24111836  0.42683285  0.44616765  1
  H  H39  1  0.47623033  0.31785291  0.44414615  1
  O  O40  1  0.34953281  0.42647051  0.39067861  1
  H  H41  1  0.25661202  0.47861147  0.40592999  1
  O  O42  1  0.04142249  0.26909759  0.41651742  1
  C  C43  1  0.01876009  0.29536211  0.20265253  1
  C  C44  1  0.33134806  0.36770697  0.43748313  1
  O  O45  1  0.45387520  0.44859968  0.44860945  1
  C  C46  1  0.27316396  0.35890024  0.46545890  1
  O  O47  1  0.35788911  0.30564140  0.45402226  1
  H  H48  1  0.48146528  0.27032237  0.19305929  1
  O  O49  1  0.23826348  0.27551716  0.24254833  1
  C  C50  1  0.18917508  0.42310000  0.48628911  1
  H  H51  1  0.01438520  0.34860183  0.25382334  1
  C  C52  1  0.00787784  0.31086215  0.09167244  1
  C  C53  1  0.15692090  0.49487437  0.46650989  1
  C  C54  1  0.01443605  0.25280901  0.01499862  1
  O  O55  1  0.13275438  0.38889335  0.86930316  1
  Cu  Cu56  1  0.15230114  0.28712370  0.82910458  1
  C  C57  1  0.12794460  0.45297995  0.81907474  1
  C  C58  1  0.24935241  0.29348171  0.51018792  1
  C  C59  1  0.19541315  0.29775388  0.54815147  1
  O  O60  1  0.08977208  0.46749592  0.75665180  1
  H  H61  1  0.12244217  0.36690831  0.57725045  1
  C  C62  1  0.16208954  0.36155645  0.53839375  1
  O  O63  1  0.02370288  0.25972755  0.71452111  1
  H  H64  1  0.00984400  0.26286950  0.92699833  1
  C  C65  1  0.07774821  0.65903209  0.23828531  1
  C  C66  1  0.06239437  0.68088649  0.12790115  1
  O  O67  1  0.11675306  0.69285625  0.28627381  1
  O  O68  1  0.04990946  0.60776007  0.28721975  1
  Cu  Cu69  1  0.05664213  0.55043133  0.42098758  1
  Cu  Cu70  1  0.18953598  0.70773421  0.23562142  1
  O  O71  1  0.17752354  0.55076526  0.41667325  1
  C  C72  1  0.47430878  0.61311689  0.09124663  1
  Cu  Cu73  1  0.17797317  0.65293573  0.45124465  1
  Cu  Cu74  1  0.38869619  0.50960463  0.45194659  1
  C  C75  1  0.45073625  0.63516382  0.28819291  1
  O  O76  1  0.45970886  0.53934540  0.09527193  1
  C  C77  1  0.47285387  0.66591009  0.19301455  1
  C  C78  1  0.44831942  0.68450596  0.37682200  1
  C  C79  1  0.48661827  0.74381761  0.17861298  1
  O  O80  1  0.18057158  0.65467118  0.10341329  1
  H  H81  1  0.43861679  0.57425159  0.29955972  1
  H  H82  1  0.01209846  0.72225799  0.37223800  1
  C  C83  1  0.20287032  0.67837605  0.01698990  1
  C  C84  1  0.01530332  0.65036606  0.08440126  1
  C  C85  1  0.08829943  0.74430842  0.07972277  1
  O  O86  1  0.22718864  0.74405984  0.01414299  1
  O  O87  1  0.48570150  0.64367419  0.00796556  1
  C  C88  1  0.42714296  0.66304423  0.48885741  1
  H  H89  1  0.24722316  0.70817401  0.81559604  1
  C  C90  1  0.19012374  0.53949274  0.73324168  1
  Cu  Cu91  1  0.06326211  0.57213159  0.71995773  1
  C  C92  1  0.17112387  0.55645965  0.92262859  1
  O  O93  1  0.06235909  0.67420349  0.66500799  1
  C  C94  1  0.04801678  0.68449512  0.56763739  1
  O  O95  1  0.27107006  0.71501922  0.65101783  1
  C  C96  1  0.20124957  0.62764759  0.92233736  1
  H  H97  1  0.18224041  0.50831580  0.65800119  1
  O  O98  1  0.24042033  0.62675490  0.53896416  1
  C  C99  1  0.16645766  0.51701591  0.82655352  1
  C  C100  1  0.22192884  0.60992667  0.72870797  1
  C  C101  1  0.22863896  0.65012664  0.82563915  1
  C  C102  1  0.24600894  0.65353176  0.63679977  1
  O  O103  1  0.41410132  0.72007130  0.54641886  1
  H  H104  1  0.47364097  0.72051025  0.72946686  1
  Cu  Cu105  1  0.34520744  0.72276319  0.61209543  1
  H  H106  1  0.14717246  0.53995033  0.99332777  1
  O  O107  1  0.41758339  0.59484130  0.51409943  1
  O  O108  1  0.02683782  0.63031450  0.50864132  1
  O  O109  1  0.10799191  0.50442188  0.50168787  1
  C  C110  1  0.05018337  0.91006404  0.43630879  1
  C  C111  1  0.48134689  0.79378359  0.26739089  1
  O  O112  1  0.32138706  0.92608257  0.17200292  1
  C  C113  1  0.02906628  0.77141649  0.41939922  1
  C  C114  1  0.20879927  0.79666824  0.42904092  1
  O  O115  1  0.17683547  0.75297381  0.48293994  1
  C  C116  1  0.28822699  0.94679951  0.10138415  1
  H  H117  1  0.12585532  0.77193957  0.11329462  1
  C  C118  1  0.00114139  0.86406810  0.27279510  1
  H  H119  1  0.29588920  0.86778240  0.35603992  1
  O  O120  1  0.21783307  0.78448778  0.33047491  1
  C  C121  1  0.28329426  0.88637639  0.43612158  1
  C  C122  1  0.23868971  0.85543386  0.49326235  1
  O  O123  1  0.27951296  0.90377232  0.01881647  1
  C  C124  1  0.35940562  0.97574503  0.44441870  1
  C  C125  1  0.02793827  0.84803290  0.37512503  1
  O  O126  1  0.37316053  0.94812529  0.35406996  1
  C  C127  1  0.46524601  0.76370703  0.36677959  1
  C  C128  1  0.49790465  0.87668291  0.26069047  1
  H  H129  1  0.45777530  0.80291434  0.43737749  1
  C  C130  1  0.31007180  0.94417878  0.49494857  1
  H  H131  1  0.04930729  0.96988282  0.39678670  1
  Cu  Cu132  1  0.37259696  0.99609556  0.20917756  1
  H  H133  1  0.49710780  0.76548119  0.09730417  1
  O  O134  1  0.07833378  0.89568161  0.86994365  1
  Cu  Cu135  1  0.20806324  0.82886597  0.92348348  1
  C  C136  1  0.09699220  0.85041261  0.94072975  1
  C  C137  1  0.48932289  0.77958369  0.71094996  1
  H  H138  1  0.08280024  0.81725757  0.67025502  1
  C  C139  1  0.06825915  0.78134452  0.98612063  1
  O  O140  1  0.37757191  0.76666782  0.73886858  1
  O  O141  1  0.20599371  0.90119828  0.81696485  1
  O  O142  1  0.10619543  0.96249211  0.69115218  1
  H  H143  1  0.44079773  0.96637501  0.67773250  1
  C  C144  1  0.04942532  0.76215856  0.52239612  1
  O  O145  1  0.37550970  0.89649536  0.77711816  1
  H  H146  1  0.19121672  0.83787439  0.64579396  1
  Cu  Cu147  1  0.32550759  0.90479262  0.89442795  1
  C  C148  1  0.25725341  0.92248922  0.65859442  1
  C  C149  1  0.29735192  0.96327174  0.60224381  1
  C  C150  1  0.06871688  0.90119587  0.54178651  1
  C  C151  1  0.24390282  0.93972415  0.77229646  1
  C  C152  1  0.39849052  0.83334064  0.74704887  1
  C  C153  1  0.45453106  0.84273731  0.71365330  1
  O  O154  1  0.28098839  0.97531075  0.82231341  1
  C  C155  1  0.22527487  0.86913290  0.60189799  1
  C  C156  1  0.06602792  0.82659454  0.58735307  1
  C  C157  1  0.08965120  0.97353145  0.59757151  1
  C  C158  1  0.47038818  0.91706737  0.68225148  1
  H  H159  1  0.00383957  0.78565419  0.86532958  1
  H  H160  1  0.21195034  0.98986212  0.95601395  1
  O  O161  1  0.14270009  0.86261603  0.98559129  1
  Cu  Cu162  1  0.11054796  0.99096631  0.84546044  1
  C  C163  1  0.02012634  0.75453028  0.93685799  1
  C  C164  1  0.72447896  0.11942788  0.09729548  1
  C  C165  1  0.73113479  0.03836797  0.10208952  1
  H  H166  1  0.85925225  0.16485032  0.07903475  1
  O  O167  1  0.55820165  0.11708177  0.36183645  1
  C  C168  1  0.52821800  0.17607044  0.38617122  1
  C  C169  1  0.82234807  0.12636005  0.08531607  1
  H  H170  1  0.68496289  0.14982765  0.11606601  1
  C  C171  1  0.50357107  0.22492884  0.14598910  1
  Cu  Cu172  1  0.53250944  0.01318838  0.34587429  1
  O  O173  1  0.92474070  0.04286752  0.07272285  1
  C  C174  1  0.82735741  0.04547968  0.07870539  1
  H  H175  1  0.62444023  0.21909540  0.33079420  1
  C  C176  1  0.77173975  0.16196586  0.08734240  1
  C  C177  1  0.51421021  0.09168895  0.09182172  1
  C  C178  1  0.55871038  0.11339725  0.02528283  1
  O  O179  1  0.64088738  0.02280573  0.17391534  1
  C  C180  1  0.57590434  0.19082358  0.02663471  1
  H  H181  1  0.50185135  0.02988820  0.09150418  1
  C  C182  1  0.55060797  0.24819483  0.09100238  1
  C  C183  1  0.88053443  0.00515082  0.06446048  1
  C  C184  1  0.76777907  0.24777888  0.08490594  1
  Cu  Cu185  1  0.99895710  0.00046447  0.10616976  1
  O  O186  1  0.69292725  0.17322438  0.65801162  1
  O  O187  1  0.98160894  0.18764599  0.59832825  1
  Cu  Cu188  1  0.64425963  0.08637639  0.61714076  1
  C  C189  1  0.59103425  0.05798251  0.96329338  1
  O  O190  1  0.63116621  0.07985799  0.90824422  1
  H  H191  1  0.61265646  0.21111085  0.98229665  1
  O  O192  1  0.50494476  0.05798794  0.59047288  1
  O  O193  1  0.62964252  0.24390015  0.58668355  1
  C  C194  1  0.67263540  0.23904768  0.62925716  1
  O  O195  1  0.58998399  0.01096744  0.57634328  1
  Cu  Cu196  1  0.65421809  0.00622988  0.80632940  1
  C  C197  1  0.53988754  0.00246163  0.60235859  1
  O  O198  1  0.69969313  0.01183172  0.56982426  1
  C  C199  1  0.62166585  0.34443539  0.34022721  1
  C  C200  1  0.67957283  0.35442475  0.31492665  1
  O  O201  1  0.69895579  0.42409011  0.30634732  1
  C  C202  1  0.59152351  0.41185639  0.36276931  1
  O  O203  1  0.85481580  0.32567586  0.35065415  1
  O  O204  1  0.71980381  0.45548756  0.03898825  1
  O  O205  1  0.72739788  0.28033660  0.03990759  1
  Cu  Cu206  1  0.68432714  0.36142985  0.08626443  1
  C  C207  1  0.89820008  0.39568033  0.48743971  1
  C  C208  1  0.86503616  0.39432665  0.38870632  1
  O  O209  1  0.70938399  0.29718423  0.29360082  1
  C  C210  1  0.53958018  0.39684653  0.39912008  1
  C  C211  1  0.57416051  0.32639306  0.08957070  1
  O  O212  1  0.79855241  0.28310344  0.14700458  1
  O  O213  1  0.55494982  0.38051063  0.15152152  1
  C  C214  1  0.51737652  0.32229849  0.41086821  1
  C  C215  1  0.59934444  0.26853140  0.34508715  1
  Cu  Cu216  1  0.50838149  0.46344987  0.11961638  1
  H  H217  1  0.60525757  0.46873335  0.34872697  1
  O  O218  1  0.78190710  0.47575941  0.17115091  1
  Cu  Cu219  1  0.76821906  0.44427816  0.31832865  1
  Cu  Cu220  1  0.78395812  0.30372595  0.30383901  1
  O  O221  1  0.83996175  0.45330120  0.35247112  1
  H  H222  1  0.91907089  0.27761165  0.45849177  1
  C  C223  1  0.99202501  0.39226139  0.05760023  1
  O  O224  1  0.98303681  0.43971225  0.12619868  1
  O  O225  1  0.61502242  0.33873312  0.03171299  1
  C  C226  1  0.50313609  0.46120360  0.42880116  1
  C  C227  1  0.74662284  0.49962761  0.10154620  1
  C  C228  1  0.54685071  0.25513024  0.37890964  1
  C  C229  1  0.69826521  0.31831955  0.65511209  1
  H  H230  1  0.62603312  0.36714165  0.57725371  1
  C  C231  1  0.66450372  0.38058247  0.62142427  1
  C  C232  1  0.68676241  0.45500304  0.63599445  1
  C  C233  1  0.90038807  0.46470506  0.54578970  1
  C  C234  1  0.74594951  0.32678300  0.71319382  1
  C  C235  1  0.73775736  0.46724168  0.68385709  1
  C  C236  1  0.81252157  0.42465479  0.79767745  1
  Cu  Cu237  1  0.91232221  0.39471241  0.89223559  1
  O  O238  1  0.84097225  0.37465161  0.84451578  1
  C  C239  1  0.76495127  0.40569700  0.72961170  1
  C  C240  1  0.95822488  0.32348452  0.60611969  1
  H  H241  1  0.76906613  0.27631053  0.74257028  1
  C  C242  1  0.96662155  0.39525539  0.66358677  1
  C  C243  1  0.93687482  0.46316124  0.63284056  1
  O  O244  1  0.82525239  0.49671298  0.81145471  1
  O  O245  1  0.98199504  0.40504365  0.95176561  1
  C  C246  1  0.99033932  0.25513362  0.64054988  1
  C  C247  1  0.92600662  0.32795819  0.51339952  1
  H  H248  1  0.99487873  0.39851340  0.73200125  1
  C  C249  1  0.78649027  0.62740149  0.15126673  1
  C  C250  1  0.78022063  0.70844001  0.13712549  1
  H  H251  1  0.81130020  0.60126352  0.21087455  1
  O  O252  1  0.84755019  0.72697251  0.26629531  1
  C  C253  1  0.75093913  0.58416045  0.08799154  1
  C  C254  1  0.71306848  0.61411844  0.01207922  1
  O  O255  1  0.51993173  0.53188889  0.42039141  1
  H  H256  1  0.99216376  0.60270575  0.11970622  1
  C  C257  1  0.74657935  0.74234384  0.05845760  1
  O  O258  1  0.67848969  0.59208650  0.60079088  1
  O  O259  1  0.62556319  0.72785242  0.65378799  1
  O  O260  1  0.55464542  0.65400705  0.66558454  1
  O  O261  1  0.64804274  0.69083497  0.86024306  1
  Cu  Cu262  1  0.54179810  0.58612749  0.54085493  1
  O  O263  1  0.92611088  0.59250354  0.98322035  1
  Cu  Cu264  1  0.66690916  0.65070054  0.72470959  1
  O  O265  1  0.74735982  0.67322368  0.76599882  1
  C  C266  1  0.57485440  0.72260549  0.66382596  1
  C  C267  1  0.95103268  0.53789302  0.68939045  1
  O  O268  1  0.82191701  0.64428882  0.68178690  1
  C  C269  1  0.77989805  0.68868950  0.69224746  1
  C  C270  1  0.65659920  0.52523638  0.59727736  1
  O  O271  1  0.93067278  0.68720225  0.85871906  1
  Cu  Cu272  1  0.88023593  0.53600615  0.89333130  1
  Cu  Cu273  1  0.87831593  0.65686718  0.76714768  1
  O  O274  1  0.92414178  0.59843024  0.66929764  1
  H  H275  1  0.68576897  0.57881404  0.96089839  1
  C  C276  1  0.94968433  0.65220674  0.94283287  1
  O  O277  1  0.60961947  0.51630468  0.56419397  1
  H  H278  1  0.75445146  0.52900612  0.68715090  1
  C  C279  1  0.67631133  0.73328705  0.92042042  1
  H  H280  1  0.85836464  0.72652196  0.56054070  1
  C  C281  1  0.99739855  0.68930959  0.98896133  1
  O  O282  1  0.98840882  0.53846261  0.75794425  1
  H  H283  1  0.88040980  0.51841711  0.51198460  1
  C  C284  1  0.71074921  0.69503847  0.99976443  1
  H  H285  1  0.78218585  0.93463790  0.08163696  1
  O  O286  1  0.99845330  0.93367210  0.24358223  1
  O  O287  1  0.90894110  0.79951209  0.41609673  1
  Cu  Cu288  1  0.87087825  0.89806466  0.21973254  1
  Cu  Cu289  1  0.57743818  0.96372847  0.18285483  1
  O  O290  1  0.86630184  0.90742094  0.37003653  1
  O  O291  1  0.81108313  0.83391500  0.19086522  1
  O  O292  1  0.87922013  0.93148918  0.06630427  1
  H  H293  1  0.79775945  0.96015162  0.47567119  1
  O  O294  1  0.50329812  0.91801579  0.34807412  1
  H  H295  1  0.74923588  0.80570885  0.04150840  1
  Cu  Cu296  1  0.91855974  0.75879872  0.26345654  1
  O  O297  1  0.68121274  0.92936115  0.07735258  1
  C  C298  1  0.87385897  0.85147474  0.43864865  1
  O  O299  1  0.51365578  0.90446569  0.17401274  1
  O  O300  1  0.98065948  0.80751551  0.21653314  1
  C  C301  1  0.68073685  0.99492683  0.12260996  1
  C  C302  1  0.81344536  0.76038659  0.20491957  1
  C  C303  1  0.77985890  0.99933111  0.08537159  1
  C  C304  1  0.56119584  0.86606333  0.64748263  1
  H  H305  1  0.60322493  0.87281004  0.61853815  1
  O  O306  1  0.58246729  0.98476454  0.98052674  1
  C  C307  1  0.52402267  0.92642642  0.64308325  1
  C  C308  1  0.71057386  0.95225247  0.62679718  1
  O  O309  1  0.68084141  0.93507244  0.70970880  1
  Cu  Cu310  1  0.63548463  0.90367041  0.95562421  1
  C  C311  1  0.54290680  0.79061699  0.67376300  1
  H  H312  1  0.71924981  0.81919728  0.73084046  1
  O  O313  1  0.67805110  0.80855881  0.91579451  1
  C  C314  1  0.75383606  0.83090070  0.67617106  1
  C  C315  1  0.83243720  0.84646753  0.52081941  1
  C  C316  1  0.75464366  0.89804177  0.60949334  1
  C  C317  1  0.83181038  0.77822846  0.58039670  1
  C  C318  1  0.79505199  0.90827253  0.53105977  1
  C  C319  1  0.78841247  0.76935571  0.65497796  1
