# generated using pymatgen
data_Zn2H25C39NO7
_symmetry_space_group_name_H-M   'P 1'
_cell_length_a   19.02022154
_cell_length_b   13.97232053
_cell_length_c   21.62955411
_cell_angle_alpha   90.00000000
_cell_angle_beta   90.00000000
_cell_angle_gamma   90.00000000
_symmetry_Int_Tables_number   1
_chemical_formula_structural   Zn2H25C39NO7
_chemical_formula_sum   'Zn16 H200 C312 N8 O56'
_cell_volume   5748.19745165
_cell_formula_units_Z   8
loop_
 _symmetry_equiv_pos_site_id
 _symmetry_equiv_pos_as_xyz
  1  'x, y, z'
loop_
 _atom_site_type_symbol
 _atom_site_label
 _atom_site_symmetry_multiplicity
 _atom_site_fract_x
 _atom_site_fract_y
 _atom_site_fract_z
 _atom_site_occupancy
  O  O0  1  0.03456652  0.08365002  0.36869303  1
  H  H1  1  0.06765822  0.21688456  0.10776520  1
  C  C2  1  0.03248998  0.43454493  0.03911642  1
  C  C3  1  0.16504965  0.49960744  0.29697121  1
  C  C4  1  0.06827685  0.05487044  0.24047257  1
  C  C5  1  0.10592455  0.45301047  0.12806368  1
  H  H6  1  0.16221352  0.42163290  0.01310720  1
  H  H7  1  0.14258813  0.31988434  0.17645344  1
  H  H8  1  0.05264522  0.39340020  0.23379070  1
  O  O9  1  0.06087470  0.28449117  0.33563658  1
  H  H10  1  0.09883265  0.01668428  0.03513860  1
  Zn  Zn11  1  0.06941285  0.19684830  0.42693669  1
  O  O12  1  0.17816521  0.15090205  0.45762528  1
  H  H13  1  0.05191692  0.07047237  0.13970393  1
  H  H14  1  0.18548168  0.38904652  0.23480688  1
  C  C15  1  0.22487863  0.20805218  0.43566660  1
  C  C16  1  0.16236013  0.46011780  0.23875836  1
  C  C17  1  0.11262376  0.35259153  0.13804019  1
  C  C18  1  0.23979165  0.21381999  0.36940970  1
  C  C19  1  0.22366357  0.17533932  0.07307118  1
  H  H20  1  0.17289983  0.09119429  0.35228578  1
  C  C21  1  0.20993898  0.15755565  0.26749448  1
  H  H22  1  0.19347711  0.45991959  0.33337993  1
  C  C23  1  0.07138782  0.29386932  0.10030791  1
  C  C24  1  0.03180727  0.33435414  0.04877903  1
  C  C25  1  0.06495101  0.49988373  0.08089958  1
  C  C26  1  0.20463051  0.14524987  0.33143618  1
  H  H27  1  0.18710163  0.10129030  0.23327782  1
  H  H28  1  0.03179473  0.11073224  0.25496730  1
  C  C29  1  0.08063306  0.03437916  0.17843130  1
  C  C30  1  0.22601557  0.16543431  0.13645204  1
  H  H31  1  0.21895607  0.11393751  0.04138552  1
  H  H32  1  0.21716899  0.08910208  0.15288303  1
  C  C33  1  0.24667345  0.35005515  0.08649580  1
  C  C34  1  0.23873471  0.26542879  0.04706933  1
  C  C35  1  0.24343409  0.24124033  0.17693398  1
  C  C36  1  0.07471628  0.01622842  0.35603040  1
  C  C37  1  0.04980691  0.31030220  0.92578141  1
  C  C38  1  0.15907866  0.49597906  0.69015642  1
  C  C39  1  0.06734407  0.23454031  0.56483509  1
  C  C40  1  0.18765373  0.46417648  0.74352927  1
  C  C41  1  0.18962229  0.47505952  0.86122502  1
  H  H42  1  0.20968144  0.26810932  0.86367600  1
  H  H43  1  0.09775609  0.34947069  0.84097384  1
  C  C44  1  0.13000523  0.10624918  0.81216701  1
  C  C45  1  0.05733642  0.30918929  0.86321994  1
  H  H46  1  0.09272833  0.37300535  0.63975759  1
  C  C47  1  0.16098200  0.15393531  0.76227369  1
  C  C48  1  0.15839353  0.47749126  0.92235338  1
  C  C49  1  0.18883911  0.42859557  0.96996281  1
  Zn  Zn50  1  0.22039365  0.27846420  0.56180995  1
  C  C51  1  0.22373825  0.14504522  0.66215562  1
  H  H52  1  0.06833632  0.38197234  0.75600138  1
  H  H53  1  0.04446155  0.07239682  0.92039491  1
  C  C54  1  0.06818816  0.31319272  0.66626330  1
  C  C55  1  0.19151424  0.09587647  0.71653302  1
  Zn  Zn56  1  0.20143394  0.04057948  0.53362807  1
  C  C57  1  0.05521036  0.31709229  0.72881175  1
  H  H58  1  0.10706328  0.15225071  0.84556698  1
  H  H59  1  0.15882205  0.23456395  0.75683084  1
  O  O60  1  0.22258824  0.23595318  0.65987734  1
  O  O61  1  0.10952099  0.29874649  0.54717703  1
  H  H62  1  0.08707120  0.35775415  0.95203035  1
  H  H63  1  0.23486720  0.41781738  0.74446503  1
  C  C64  1  0.04959920  0.22896564  0.63085834  1
  H  H65  1  0.18586727  0.47789842  0.64752605  1
  H  H66  1  0.00257607  0.08630803  0.63454035  1
  O  O67  1  0.04716120  0.16961474  0.52582304  1
  O  O68  1  0.24952850  0.09946525  0.61616002  1
  C  C69  1  0.12574711  0.00508740  0.81345031  1
  C  C70  1  0.01394120  0.24413599  0.82923157  1
  C  C71  1  0.01200346  0.15287265  0.72514620  1
  C  C72  1  0.02696478  0.23701877  0.76223608  1
  C  C73  1  0.24856191  0.36807385  0.95505474  1
  C  C74  1  0.01748564  0.15063317  0.66163548  1
  H  H75  1  0.00450253  0.46477229  0.99907943  1
  C  C76  1  0.21961621  0.62849998  0.10091414  1
  Zn  Zn77  1  0.16607074  0.83468872  0.42567980  1
  C  C78  1  0.02535562  0.82870111  0.08362687  1
  C  C79  1  0.14452127  0.97356101  0.04667076  1
  C  C80  1  0.13701346  0.91937024  0.27474010  1
  O  O81  1  0.12057381  0.72955691  0.36410969  1
  C  C82  1  0.01451433  0.81891725  0.14660768  1
  O  O83  1  0.14309188  0.59469407  0.41290465  1
  C  C84  1  0.13253189  0.59128240  0.30233423  1
  C  C85  1  0.12998901  0.50475948  0.18582260  1
  H  H86  1  0.07085360  0.86794385  0.06471969  1
  C  C87  1  0.16131171  0.90866209  0.21588211  1
  C  C88  1  0.13526507  0.64163345  0.36629894  1
  C  C89  1  0.22971233  0.85822940  0.00319780  1
  H  H90  1  0.07828752  0.71077828  0.26546989  1
  C  C91  1  0.13951572  0.97490812  0.16668399  1
  H  H92  1  0.15108349  0.86926350  0.31232518  1
  H  H93  1  0.07343521  0.63126944  0.15534703  1
  C  C94  1  0.10035282  0.59848051  0.19375221  1
  O  O95  1  0.09633692  0.95902527  0.39660303  1
  H  H96  1  0.04803331  0.83952297  0.18677715  1
  C  C97  1  0.17604157  0.95630536  0.10695443  1
  C  C98  1  0.10346012  0.64067535  0.25360513  1
  H  H99  1  0.15818301  0.74256197  0.05818063  1
  C  C100  1  0.20179991  0.69099286  0.05456823  1
  H  H101  1  0.20315103  0.85736171  0.20683777  1
  H  H102  1  0.05925242  0.57890649  0.07399733  1
  H  H103  1  0.18811565  0.63550988  0.14408677  1
  H  H104  1  0.23627313  0.62638177  0.20688320  1
  O  O105  1  0.23740565  0.92283447  0.48588935  1
  C  C106  1  0.24182136  0.90587456  0.11027031  1
  C  C107  1  0.09094119  0.99586010  0.28868128  1
  Zn  Zn108  1  0.06870418  0.60828886  0.49629407  1
  C  C109  1  0.02035981  0.93065679  0.95522373  1
  C  C110  1  0.10612286  0.85331419  0.86220130  1
  C  C111  1  0.24629575  0.68630742  0.87216123  1
  H  H112  1  0.15466468  0.85943446  0.76652316  1
  Zn  Zn113  1  0.09354486  0.81042172  0.59405521  1
  C  C114  1  0.07592529  0.79067959  0.90421078  1
  H  H115  1  0.01561219  0.86916541  0.78141049  1
  H  H116  1  0.15025989  0.93281245  0.94889279  1
  C  C117  1  0.15746121  0.94206422  0.76749073  1
  H  H118  1  0.20020154  0.66316132  0.69878673  1
  O  O119  1  0.10605778  0.55572528  0.57533982  1
  H  H120  1  0.08599722  0.71208024  0.90195591  1
  C  C121  1  0.09534701  0.56527270  0.79692364  1
  H  H122  1  0.07148531  0.58785786  0.84187878  1
  C  C123  1  0.06991906  0.60136342  0.74017100  1
  C  C124  1  0.10115042  0.56223515  0.68549495  1
  C  C125  1  0.08286354  0.59842971  0.62340568  1
  C  C126  1  0.02918073  0.82732053  0.95179534  1
  O  O127  1  0.04860960  0.87017838  0.67921568  1
  C  C128  1  0.09514337  0.95446829  0.86610085  1
  H  H129  1  0.03073129  0.65797746  0.73926204  1
  O  O130  1  0.13387823  0.94992016  0.57977286  1
  H  H131  1  0.13805246  0.81563073  0.82660789  1
  H  H132  1  0.11383779  0.99242529  0.60946957  1
  H  H133  1  0.22147037  0.64862065  0.58510482  1
  O  O134  1  0.04655053  0.67335806  0.61862037  1
  H  H135  1  0.21542068  0.95226131  0.68311886  1
  C  C136  1  0.17064223  0.92356924  0.99720180  1
  H  H137  1  0.15738193  0.70379856  0.51916983  1
  C  C138  1  0.24747893  0.68556479  0.80792311  1
  C  C139  1  0.24483554  0.68824180  0.99886086  1
  N  N140  1  0.24131177  0.77608281  0.96831125  1
  O  O141  1  0.12192948  0.75551640  0.50892322  1
  C  C142  1  0.23999832  0.71087543  0.67644978  1
  H  H143  1  0.24604323  0.61665788  0.78195616  1
  H  H144  1  0.23493718  0.89384505  0.52507713  1
  H  H145  1  0.24082996  0.61596412  0.89654129  1
  C  C146  1  0.15717358  0.50627739  0.79983639  1
  C  C147  1  0.19095050  0.99253501  0.72256068  1
  H  H148  1  0.10687519  0.51342728  0.92745197  1
  C  C149  1  0.05322981  0.99388017  0.91618087  1
  C  C150  1  0.37027611  0.49684709  0.26898566  1
  C  C151  1  0.45497632  0.09434709  0.03709337  1
  H  H152  1  0.34803402  0.09404224  0.46588941  1
  H  H153  1  0.31311431  0.10625918  0.01789290  1
  C  C154  1  0.47886330  0.03788682  0.37709473  1
  H  H155  1  0.32019960  0.33466612  0.37124612  1
  O  O156  1  0.48577551  0.09853602  0.41837941  1
  C  C157  1  0.40545591  0.04945562  0.13361622  1
  C  C158  1  0.40760896  0.14772302  0.15462286  1
  H  H159  1  0.39980658  0.45212730  0.11829547  1
  C  C160  1  0.39038995  0.48105071  0.33606962  1
  H  H161  1  0.44293504  0.29285123  0.13636806  1
  H  H162  1  0.33082647  0.34932779  0.26427463  1
  C  C163  1  0.43708470  0.21906515  0.11998592  1
  C  C164  1  0.29791339  0.29074033  0.28225339  1
  H  H165  1  0.45323275  0.41910254  0.22011656  1
  C  C166  1  0.40236447  0.46007482  0.21607360  1
  C  C167  1  0.37727349  0.48573005  0.15832967  1
  C  C168  1  0.43338961  0.02042620  0.07525579  1
  C  C169  1  0.32970514  0.02453750  0.22156462  1
  H  H170  1  0.38741254  0.16762333  0.19883353  1
  H  H171  1  0.32266305  0.10344074  0.21696047  1
  C  C172  1  0.46431103  0.19090119  0.06179552  1
  O  O173  1  0.44013321  0.42629617  0.34397123  1
  C  C174  1  0.49728415  0.01638436  0.25937483  1
  H  H175  1  0.25998749  0.40116860  0.17721594  1
  C  C176  1  0.29011213  0.28098599  0.34492725  1
  O  O177  1  0.36473422  0.05011077  0.49563592  1
  C  C178  1  0.25083911  0.33675570  0.14875684  1
  H  H179  1  0.25519395  0.42190010  0.06401482  1
  O  O180  1  0.25954268  0.25447605  0.47367100  1
  H  H181  1  0.35059282  0.49399189  0.03186154  1
  H  H182  1  0.27485450  0.01297815  0.30899904  1
  C  C183  1  0.25104886  0.23348427  0.24469679  1
  C  C184  1  0.34799327  0.46578992  0.64581661  1
  N  N185  1  0.25289192  0.27704381  0.98297081  1
  C  C186  1  0.37822485  0.05555002  0.80316240  1
  C  C187  1  0.39795133  0.42926881  0.74815654  1
  H  H188  1  0.40456804  0.21101407  0.84025244  1
  C  C189  1  0.37048273  0.39902740  0.69069045  1
  C  C190  1  0.28919068  0.16443524  0.83650363  1
  O  O191  1  0.32258397  0.34292031  0.57808479  1
  H  H192  1  0.47571812  0.48682842  0.53544978  1
  C  C193  1  0.44629002  0.24328207  0.87036582  1
  H  H194  1  0.38176657  0.32464698  0.67730775  1
  C  C195  1  0.26321649  0.19666066  0.94575920  1
  H  H196  1  0.44673478  0.15270092  0.75963054  1
  C  C197  1  0.34327597  0.05440728  0.74323200  1
  H  H198  1  0.28819687  0.08167866  0.73626183  1
  C  C199  1  0.44101960  0.24358333  0.93509732  1
  C  C200  1  0.34048689  0.06113083  0.92280420  1
  H  H201  1  0.45607435  0.43603513  0.86876265  1
  H  H202  1  0.29142743  0.46381882  0.81117494  1
  C  C203  1  0.32161496  0.43280415  0.58391129  1
  H  H204  1  0.41963109  0.37642226  0.77873174  1
  C  C205  1  0.37805808  0.03071316  0.68956719  1
  H  H206  1  0.39327474  0.21350451  0.95677336  1
  C  C207  1  0.30639340  0.11807997  0.96645753  1
  H  H208  1  0.34221490  0.35649241  0.89574739  1
  C  C209  1  0.33887910  0.09206332  0.85921918  1
  H  H210  1  0.34955270  0.02099174  0.64518038  1
  C  C211  1  0.47653254  0.20621145  0.73509867  1
  C  C212  1  0.47764235  0.20626406  0.67144029  1
  C  C213  1  0.28977191  0.38828548  0.90209645  1
  H  H214  1  0.45056121  0.14672968  0.64519038  1
  C  C215  1  0.26152673  0.44346927  0.85508086  1
  H  H216  1  0.46938361  0.08172222  0.98795831  1
  O  O217  1  0.47301312  0.23677567  0.54134153  1
  H  H218  1  0.27449102  0.16948355  0.78671812  1
  C  C219  1  0.25013382  0.21301168  0.88081572  1
  H  H220  1  0.47683452  0.02563603  0.85597323  1
  O  O221  1  0.29215761  0.47959193  0.54237669  1
  C  C222  1  0.44967328  0.02293944  0.81059833  1
  H  H223  1  0.37451238  0.00011303  0.93879682  1
  Zn  Zn224  1  0.46591260  0.08265261  0.51875824  1
  C  C225  1  0.28460281  0.58302806  0.20876423  1
  O  O226  1  0.28676067  0.73397552  0.32961149  1
  Zn  Zn227  1  0.35430584  0.54736475  0.47734634  1
  C  C228  1  0.30596276  0.97743117  0.27378313  1
  O  O229  1  0.29895733  0.68043017  0.49096647  1
  C  C230  1  0.28290810  0.82067949  0.32953462  1
  C  C231  1  0.31226726  0.87636792  0.27674124  1
  H  H232  1  0.41428449  0.83450784  0.14927368  1
  C  C233  1  0.42899002  0.68481823  0.07654454  1
  H  H234  1  0.44275504  0.98661436  0.25545126  1
  H  H235  1  0.38085643  0.66843319  0.04916031  1
  C  C236  1  0.26692540  0.85546534  0.05994403  1
  C  C237  1  0.37831752  0.87821416  0.18034360  1
  C  C238  1  0.44139311  0.68527646  0.14085067  1
  H  H239  1  0.31275379  0.80762626  0.06631097  1
  C  C240  1  0.28270864  0.57051659  0.09341393  1
  Zn  Zn241  1  0.34387189  0.93724832  0.43882358  1
  H  H242  1  0.39510924  0.67542318  0.17157512  1
  C  C243  1  0.31225169  0.55841093  0.26696703  1
  H  H244  1  0.36260133  0.74835864  0.23193640  1
  O  O245  1  0.25971556  0.87283999  0.37639046  1
  C  C246  1  0.35226687  0.82820435  0.22935698  1
  H  H247  1  0.27098353  0.89676443  0.15308091  1
  H  H248  1  0.47176209  0.64768115  0.37714167  1
  C  C249  1  0.31270603  0.55069662  0.03352176  1
  C  C250  1  0.49779373  0.68443795  0.33815968  1
  C  C251  1  0.36937396  0.97898504  0.17507267  1
  C  C252  1  0.31499784  0.54610373  0.15292303  1
  H  H253  1  0.43032177  0.94668490  0.05890681  1
  H  H254  1  0.44765942  0.61731647  0.25969354  1
  O  O255  1  0.43024801  0.97700338  0.37476125  1
  C  C256  1  0.48584037  0.66815126  0.27708699  1
  H  H257  1  0.28516363  0.58350901  0.30879673  1
  C  C258  1  0.48798928  0.71687074  0.03962862  1
  O  O259  1  0.35151023  0.50545008  0.37985068  1
  O  O260  1  0.36563732  0.80529089  0.49885984  1
  C  C261  1  0.28180356  0.77603636  0.71306739  1
  H  H262  1  0.31480862  0.60166488  0.93941564  1
  C  C263  1  0.46006107  0.55638666  0.93099777  1
  C  C264  1  0.41797437  0.70768835  0.88832842  1
  C  C265  1  0.40200117  0.67175730  0.83010049  1
  C  C266  1  0.41918585  0.57253850  0.82309671  1
  H  H267  1  0.38056556  0.72101762  0.79525143  1
  C  C268  1  0.35484500  0.56565418  0.65536797  1
  C  C269  1  0.32200974  0.75108376  0.52321444  1
  H  H270  1  0.28650368  0.93872270  0.78426681  1
  C  C271  1  0.44510446  0.51489727  0.87324251  1
  C  C272  1  0.26584502  0.86742987  0.87381010  1
  H  H273  1  0.34666920  0.62020390  0.62084437  1
  H  H274  1  0.38745667  0.86445356  0.59834427  1
  C  C275  1  0.25315578  0.77585554  0.90405972  1
  C  C276  1  0.44993279  0.65589219  0.93792518  1
  H  H277  1  0.41136356  0.78524504  0.89916212  1
  C  C278  1  0.39892109  0.53085783  0.76092144  1
  C  C279  1  0.34416219  0.82965241  0.62499250  1
  H  H280  1  0.37051321  0.88407186  0.71603066  1
  C  C281  1  0.25211564  0.70128044  0.61223014  1
  C  C282  1  0.37593926  0.59552297  0.71523912  1
  C  C283  1  0.27439488  0.86776693  0.81051718  1
  H  H284  1  0.37318323  0.67359104  0.72660034  1
  C  C285  1  0.30619623  0.76201247  0.58982640  1
  C  C286  1  0.33589145  0.83693706  0.68822192  1
  H  H287  1  0.47714313  0.51292014  0.96983002  1
  H  H288  1  0.26353794  0.93519024  0.90042284  1
  C  C289  1  0.26439019  0.77755385  0.78086625  1
  C  C290  1  0.44869032  0.99522490  0.69950650  1
  C  C291  1  0.48372775  0.99280886  0.75648531  1
  C  C292  1  0.48740797  0.97143717  0.64442987  1
  C  C293  1  0.29353658  0.61195017  0.98559027  1
  N  N294  1  0.49214278  0.71574777  0.97589676  1
  O  O295  1  0.45486409  0.97851709  0.59291813  1
  O  O296  1  0.45995106  0.53882688  0.50677133  1
  C  C297  1  0.72567000  0.31819307  0.28420022  1
  H  H298  1  0.70235576  0.00829967  0.27698180  1
  H  H299  1  0.60599168  0.20150810  0.11210336  1
  C  C300  1  0.59595283  0.46411419  0.34526284  1
  H  H301  1  0.68043865  0.40284616  0.02552481  1
  C  C302  1  0.60513211  0.32565031  0.17151242  1
  C  C303  1  0.59009053  0.27524946  0.11755131  1
  O  O304  1  0.71583907  0.30292768  0.47848397  1
  C  C305  1  0.59108005  0.42571691  0.17172944  1
  H  H306  1  0.63428640  0.29401391  0.21250535  1
  C  C307  1  0.72925071  0.31698470  0.34902979  1
  C  C308  1  0.61990010  0.01470668  0.20815310  1
  C  C309  1  0.55160961  0.31904341  0.06778381  1
  C  C310  1  0.52491605  0.03907217  0.32135850  1
  C  C311  1  0.60050997  0.47963666  0.23335019  1
  C  C312  1  0.56059664  0.47253105  0.11895350  1
  Zn  Zn313  1  0.56956100  0.12999696  0.25839544  1
  C  C314  1  0.54192636  0.41919240  0.06583442  1
  C  C315  1  0.57988091  0.42644732  0.28645362  1
  C  C316  1  0.74679286  0.15600217  0.09165962  1
  H  H317  1  0.55099734  0.35898994  0.28080197  1
  H  H318  1  0.57997039  0.43205496  0.38995130  1
  C  C319  1  0.60062760  0.04539994  0.33162729  1
  H  H320  1  0.62122814  0.05063070  0.37882160  1
  H  H321  1  0.70269077  0.37802814  0.25796856  1
  H  H322  1  0.70760879  0.38068077  0.37446373  1
  C  C323  1  0.73798001  0.23119009  0.44816761  1
  C  C324  1  0.64667758  0.02650095  0.27165193  1
  H  H325  1  0.74391862  0.08488331  0.07268887  1
  N  N326  1  0.51019266  0.25364805  0.03126948  1
  H  H327  1  0.51792720  0.45178727  0.02612782  1
  C  C328  1  0.54359127  0.01324137  0.19928937  1
  H  H329  1  0.61468611  0.02105947  0.08216743  1
  C  C330  1  0.60963905  0.09678837  0.82121865  1
  C  C331  1  0.56604907  0.30109166  0.93723644  1
  C  C332  1  0.68565984  0.46019584  0.75427344  1
  C  C333  1  0.54760017  0.35952274  0.66949028  1
  C  C334  1  0.56906071  0.30828845  0.87388343  1
  Zn  Zn335  1  0.68013221  0.30624492  0.57335441  1
  H  H336  1  0.73905174  0.08887897  0.81038928  1
  C  C337  1  0.51821505  0.28115323  0.57075400  1
  H  H338  1  0.58242585  0.13796804  0.85757872  1
  H  H339  1  0.61767829  0.34217808  0.84770540  1
  H  H340  1  0.56886575  0.41958979  0.75888370  1
  H  H341  1  0.60550939  0.20448021  0.74923734  1
  C  C342  1  0.62733198  0.13611026  0.76418651  1
  C  C343  1  0.67647089  0.13033183  0.65711688  1
  C  C344  1  0.66272152  0.08494694  0.71764846  1
  O  O345  1  0.56880032  0.32223919  0.54659046  1
  O  O346  1  0.65585470  0.21456822  0.64572178  1
  C  C347  1  0.69940884  0.44944621  0.86970253  1
  H  H348  1  0.69611916  0.20622851  0.89546106  1
  C  C349  1  0.66925335  0.44994062  0.93089996  1
  H  H350  1  0.61103380  0.31809519  0.96375960  1
  C  C351  1  0.70312945  0.40304461  0.97795052  1
  H  H352  1  0.57609502  0.41617606  0.64361820  1
  O  O353  1  0.70441400  0.07551577  0.61778980  1
  C  C354  1  0.54254256  0.35925823  0.73451295  1
  H  H355  1  0.72656759  0.40904479  0.74925325  1
  C  C356  1  0.51408059  0.28303413  0.64008438  1
  H  H357  1  0.58283698  0.02736307  0.95354572  1
  H  H358  1  0.56753099  0.12153807  0.55915429  1
  O  O359  1  0.57241773  0.06731125  0.52861007  1
  C  C360  1  0.74232246  0.16200580  0.89948643  1
  C  C361  1  0.50345797  0.26813125  0.96773116  1
  C  C362  1  0.50981145  0.27440554  0.83964447  1
  C  C363  1  0.51102840  0.28310093  0.76962207  1
  C  C364  1  0.65956272  0.49765964  0.69934427  1
  H  H365  1  0.68216072  0.48068300  0.65433847  1
  C  C366  1  0.66207862  0.48847843  0.81468710  1
  H  H367  1  0.62278212  0.49662186  0.93990431  1
  C  C368  1  0.63245035  0.00014268  0.82891348  1
  H  H369  1  0.62072705  0.76714537  0.14263335  1
  C  C370  1  0.54728177  0.75786439  0.34966550  1
  O  O371  1  0.64945457  0.53517460  0.45241235  1
  H  H372  1  0.68547700  0.67484281  0.29579069  1
  C  C373  1  0.56561059  0.75079739  0.12666616  1
  C  C374  1  0.55641365  0.74358313  0.06485455  1
  C  C375  1  0.63939597  0.56914173  0.23602946  1
  O  O376  1  0.52589754  0.72066668  0.45394752  1
  H  H377  1  0.69738504  0.68195597  0.16211555  1
  H  H378  1  0.51500766  0.97419929  0.16206603  1
  O  O379  1  0.71272199  0.64473451  0.40580741  1
  H  H380  1  0.62790627  0.85753963  0.32022550  1
  C  C381  1  0.67064770  0.57779610  0.40307468  1
  H  H382  1  0.64244498  0.60691959  0.19094554  1
  H  H383  1  0.60008552  0.76217840  0.03403481  1
  C  C384  1  0.65818805  0.60471938  0.29278439  1
  O  O385  1  0.60882803  0.82705007  0.43398529  1
  H  H386  1  0.54868090  0.55060754  0.12274577  1
  C  C387  1  0.67468864  0.89426862  0.05887307  1
  C  C388  1  0.63929063  0.54494879  0.34343514  1
  C  C389  1  0.58572064  0.81173863  0.30541360  1
  Zn  Zn390  1  0.71373761  0.79186341  0.45989396  1
  C  C391  1  0.74365044  0.82818760  0.14622963  1
  C  C392  1  0.64515562  0.95925658  0.09830348  1
  H  H393  1  0.60207042  0.82892090  0.20490481  1
  C  C394  1  0.57517909  0.79439914  0.24319075  1
  C  C395  1  0.55877613  0.77347623  0.41683362  1
  C  C396  1  0.52061688  0.72642250  0.23185239  1
  H  H397  1  0.71873046  0.88014652  0.23761484  1
  C  C398  1  0.71182542  0.89019232  0.18879389  1
  C  C399  1  0.66185335  0.95432109  0.16399358  1
  H  H400  1  0.52037345  0.90529125  0.01125864  1
  C  C401  1  0.74158541  0.63899966  0.14467598  1
  C  C402  1  0.50626610  0.72078770  0.16442836  1
  C  C403  1  0.72087343  0.81964218  0.08409813  1
  H  H404  1  0.65818822  0.89698416  0.00821042  1
  N  N405  1  0.74242184  0.73758014  0.05331701  1
  C  C406  1  0.72002941  0.71358418  0.68406091  1
  H  H407  1  0.70903310  0.94585884  0.69208875  1
  O  O408  1  0.60969188  0.57670228  0.58990907  1
  H  H409  1  0.60080903  0.82498097  0.80025104  1
  C  C410  1  0.53546692  0.78202597  0.94618177  1
  C  C411  1  0.59607270  0.53797645  0.81792839  1
  C  C412  1  0.59476335  0.93105337  0.87210415  1
  H  H413  1  0.52577236  0.62417632  0.76343788  1
  O  O414  1  0.53161334  0.65360882  0.64469153  1
  Zn  Zn415  1  0.55446670  0.58665548  0.50340999  1
  C  C416  1  0.55724066  0.76197650  0.88394901  1
  C  C417  1  0.58038212  0.59715009  0.64187585  1
  H  H418  1  0.54190624  0.69009160  0.86573770  1
  H  H419  1  0.57028325  0.55108858  0.86184466  1
  C  C420  1  0.58617395  0.83541038  0.84942112  1
  H  H421  1  0.68120413  0.68445956  0.65122164  1
  C  C422  1  0.70984883  0.70266945  0.74694870  1
  C  C423  1  0.73809179  0.65289804  0.95325401  1
  O  O424  1  0.55134076  0.94028045  0.64794108  1
  C  C425  1  0.60276544  0.56042342  0.70467497  1
  C  C426  1  0.57270725  0.57677865  0.76314087  1
  C  C427  1  0.54270868  0.87863206  0.96767881  1
  C  C428  1  0.67640918  0.95033398  0.78670139  1
  H  H429  1  0.66287348  0.66457886  0.76558335  1
  O  O430  1  0.69924369  0.91717037  0.51976944  1
  H  H431  1  0.69576605  0.87602266  0.79540554  1
  C  C432  1  0.57606036  0.95209882  0.93530423  1
  C  C433  1  0.73895226  0.66081472  0.88938724  1
  H  H434  1  0.53837844  0.97166639  0.75947647  1
  C  C435  1  0.74901604  0.75041419  0.85704870  1
  H  H436  1  0.73764538  0.58073337  0.97633014  1
  Zn  Zn437  1  0.62608521  0.96902497  0.57573233  1
  C  C438  1  0.68628156  0.98993039  0.72863919  1
  O  O439  1  0.74434847  0.74609622  0.55690585  1
  C  C440  1  0.74502771  0.74027061  0.98849410  1
  H  H441  1  0.71416029  0.96921604  0.50038664  1
  H  H442  1  0.73290367  0.59876603  0.86097967  1
  C  C443  1  0.96202373  0.37122830  0.29527073  1
  H  H444  1  0.79497471  0.09068987  0.26038354  1
  H  H445  1  0.98077279  0.46729582  0.15005037  1
  C  C446  1  0.99820572  0.31332705  0.34446906  1
  C  C447  1  0.89935334  0.18143959  0.16135354  1
  H  H448  1  0.82815321  0.06642386  0.02839885  1
  C  C449  1  0.91458659  0.07237364  0.26850444  1
  H  H450  1  0.89442757  0.47963854  0.07483080  1
  H  H451  1  0.79155214  0.45475980  0.27096526  1
  C  C452  1  0.95705920  0.45364561  0.19742513  1
  H  H453  1  0.87363673  0.20322805  0.20216768  1
  C  C454  1  0.95676576  0.20167410  0.06095661  1
  C  C455  1  0.94173758  0.03753818  0.09957873  1
  C  C456  1  0.96505916  0.09975689  0.05432868  1
  C  C457  1  0.92121350  0.24196533  0.11391807  1
  C  C458  1  0.99776327  0.40511532  0.24198551  1
  C  C459  1  0.77756360  0.14764776  0.35116970  1
  C  C460  1  0.88382913  0.47087815  0.20698488  1
  C  C461  1  0.89332073  0.02539754  0.21204187  1
  H  H462  1  0.93498470  0.14577272  0.27018684  1
  H  H463  1  0.86575712  0.37173487  0.35146605  1
  C  C464  1  0.91239472  0.08121542  0.15364650  1
  C  C465  1  0.89237318  0.03514887  0.32554915  1
  C  C466  1  0.77683932  0.15022472  0.28943267  1
  C  C467  1  0.88874305  0.38953241  0.30759810  1
  C  C468  1  0.85086618  0.44052019  0.26393926  1
  H  H469  1  0.90313636  0.07274430  0.36870858  1
  H  H470  1  0.91033972  0.31697877  0.11720008  1
  H  H471  1  0.79652660  0.08491951  0.37763491  1
  O  O472  1  0.97349981  0.30107577  0.39686666  1
  N  N473  1  0.98530311  0.26796877  0.01934432  1
  H  H474  1  0.99590388  0.07549325  0.01284835  1
  O  O475  1  0.75260911  0.15456096  0.47516914  1
  H  H476  1  0.77405810  0.39203644  0.06342400  1
  C  C477  1  0.75064671  0.23140907  0.37932662  1
  C  C478  1  0.75332986  0.24410215  0.18798354  1
  H  H479  1  0.75719968  0.39738119  0.17816698  1
  C  C480  1  0.75386963  0.24022647  0.05443121  1
  C  C481  1  0.75978080  0.32883819  0.08839572  1
  C  C482  1  0.75638222  0.32965389  0.15283033  1
  C  C483  1  0.75225184  0.15618025  0.15496434  1
  C  C484  1  0.75435249  0.23401613  0.25712022  1
  H  H485  1  0.75422333  0.08952784  0.18259659  1
  H  H486  1  0.86474514  0.01557724  0.65691760  1
  C  C487  1  0.81889370  0.32815422  0.64440326  1
  H  H488  1  0.84367345  0.30846781  0.89385100  1
  C  C489  1  0.84626278  0.02266800  0.93174801  1
  C  C490  1  0.90661659  0.39322433  0.79899411  1
  C  C491  1  0.84480646  0.02757198  0.75603914  1
  O  O492  1  0.84485643  0.01538541  0.57130965  1
  O  O493  1  0.84502194  0.24717675  0.63168128  1
  H  H494  1  0.91519208  0.14411716  0.94819773  1
  C  C495  1  0.79839258  0.34985006  0.90693038  1
  H  H496  1  0.79697179  0.06935537  0.74884203  1
  H  H497  1  0.79400917  0.40590740  0.81508747  1
  C  C498  1  0.96180544  0.18140776  0.85752918  1
  C  C499  1  0.81828396  0.07673468  0.97819743  1
  H  H500  1  0.93956837  0.35963733  0.83713833  1
  C  C501  1  0.82744010  0.03842657  0.86767686  1
  C  C502  1  0.84162257  0.38416308  0.70202770  1
  C  C503  1  0.77320959  0.15464071  0.95991616  1
  Zn  Zn504  1  0.80704580  0.14544527  0.56011555  1
  C  C505  1  0.95583585  0.18553670  0.92200617  1
  H  H506  1  0.99904571  0.08639476  0.74906428  1
  H  H507  1  0.90222991  0.45955342  0.93419276  1
  H  H508  1  0.91612340  0.28192545  0.73117372  1
  H  H509  1  0.93061070  0.12973224  0.83167325  1
  C  C510  1  0.81815059  0.47939321  0.70916919  1
  C  C511  1  0.88889874  0.34441879  0.74428026  1
  C  C512  1  0.75845436  0.33426024  0.96349847  1
  C  C513  1  0.76749282  0.40436214  0.86022253  1
  O  O514  1  0.77865410  0.37126382  0.60764591  1
  N  N515  1  0.76289973  0.24202254  0.99078753  1
  C  C516  1  0.76671664  0.09604105  0.85568353  1
  C  C517  1  0.99707994  0.25258578  0.95682435  1
  C  C518  1  0.88578169  0.49151174  0.80540221  1
  C  C519  1  0.76621041  0.65350488  0.08360693  1
  H  H520  1  0.78487804  0.77835774  0.16088129  1
  C  C521  1  0.95450506  0.77216279  0.17509270  1
  C  C522  1  0.82047974  0.91450209  0.38841453  1
  C  C523  1  0.90477406  0.72495680  0.13526420  1
  C  C524  1  0.95038149  0.65665825  0.33450411  1
  H  H525  1  0.82669663  0.59023329  0.00402629  1
  C  C526  1  0.85849373  0.93589263  0.21894467  1
  C  C527  1  0.81587051  0.59109531  0.05459768  1
  C  C528  1  0.95031719  0.66589969  0.26948679  1
  C  C529  1  0.85021722  0.95198515  0.32871625  1
  C  C530  1  0.91320447  0.74034698  0.07105917  1
  H  H531  1  0.86127624  0.68517559  0.15669779  1
  H  H532  1  0.97434114  0.91673875  0.25739155  1
  H  H533  1  0.80954253  0.82567385  0.27340858  1
  C  C534  1  0.83248131  0.89897417  0.27405605  1
  H  H535  1  0.93942100  0.58860287  0.35921115  1
  H  H536  1  0.98488537  0.89633523  0.37639810  1
  H  H537  1  0.84941073  0.89226176  0.17778908  1
  O  O538  1  0.77208612  0.85178739  0.38745519  1
  C  C539  1  0.96805294  0.84542264  0.28011909  1
  C  C540  1  0.97374889  0.83538631  0.34376382  1
  O  O541  1  0.83989774  0.94946535  0.43669364  1
  O  O542  1  0.96298212  0.81668335  0.46897662  1
  C  C543  1  0.95875568  0.74343271  0.43673785  1
  C  C544  1  0.95703718  0.74555246  0.36643219  1
  H  H545  1  0.87306596  0.71658002  0.03481589  1
  H  H546  1  0.95080066  0.95916371  0.09430275  1
  C  C547  1  0.77996508  0.57942822  0.18246595  1
  C  C548  1  0.95650593  0.76066659  0.24352119  1
  H  H549  1  0.94896696  0.59992401  0.24042322  1
  O  O550  1  0.97381969  0.66326634  0.45827583  1
  C  C551  1  0.97396412  0.78202251  0.04619944  1
  C  C552  1  0.84115684  0.52879925  0.15957301  1
  H  H553  1  0.93841483  0.58083502  0.01678066  1
  C  C554  1  0.85536610  0.53275439  0.09519496  1
  H  H555  1  0.76535800  0.57074309  0.22992227  1
  H  H556  1  0.85412605  0.82852234  0.79944713  1
  Zn  Zn557  1  0.89685679  0.89350075  0.52677031  1
  C  C558  1  0.99303095  0.91737632  0.66462067  1
  H  H559  1  0.93432056  0.66616227  0.78641801  1
  C  C560  1  0.75897590  0.74453090  0.78689825  1
  C  C561  1  0.91822538  0.52889369  0.92043551  1
  O  O562  1  0.85524435  0.77850948  0.58214335  1
  H  H563  1  0.81720943  0.60879623  0.76631468  1
  C  C564  1  0.82011765  0.79297655  0.76584093  1
  C  C565  1  0.83693613  0.53167380  0.76118333  1
  C  C566  1  0.95626891  0.71031014  0.87696320  1
  C  C567  1  0.94476044  0.93918840  0.71357409  1
  C  C568  1  0.79106592  0.76305828  0.59461027  1
  C  C569  1  0.78082908  0.76110627  0.66358146  1
  H  H570  1  0.87979509  0.83767435  0.68627040  1
  C  C571  1  0.93327903  0.64685959  0.83545256  1
  C  C572  1  0.91489011  0.55280754  0.85601257  1
  C  C573  1  0.75529474  0.83371513  0.89441540  1
  H  H574  1  0.78199624  0.51464222  0.67634270  1
  H  H575  1  0.96926123  0.78205988  0.86155640  1
  C  C576  1  0.93046044  0.93882923  0.82612402  1
  C  C577  1  0.83230092  0.79743214  0.70237787  1
  H  H578  1  0.76278562  0.90227169  0.86965443  1
  C  C579  1  0.96034469  0.68888510  0.94214192  1
  C  C580  1  0.96783718  0.91013396  0.77459694  1
  O  O581  1  0.98183081  0.93259276  0.60888781  1
  H  H582  1  0.98190534  0.95711724  0.98775793  1
  C  C583  1  0.93753679  0.59831475  0.96539314  1
  H  H584  1  0.95308202  0.92604249  0.87165092  1
  H  H585  1  0.75731036  0.89259001  0.98603578  1
  H  H586  1  0.88806522  0.97020499  0.94224933  1
  C  C587  1  0.75722806  0.82880828  0.95787501  1
  N  N588  1  0.98745838  0.76163978  0.98147625  1
  C  C589  1  0.86721741  0.99643036  0.81641775  1
  C  C590  1  0.88139439  0.99384911  0.70691175  1
  H  H591  1  0.80106363  0.98752894  0.57482708  1
