# generated using pymatgen
data_ZnH3C9O4
_symmetry_space_group_name_H-M   'P 1'
_cell_length_a   13.73118082
_cell_length_b   14.88748805
_cell_length_c   21.65610876
_cell_angle_alpha   90.00000000
_cell_angle_beta   90.00000000
_cell_angle_gamma   90.00000000
_symmetry_Int_Tables_number   1
_chemical_formula_structural   ZnH3C9O4
_chemical_formula_sum   'Zn16 H48 C144 O64'
_cell_volume   4427.00218217
_cell_formula_units_Z   16
loop_
 _symmetry_equiv_pos_site_id
 _symmetry_equiv_pos_as_xyz
  1  'x, y, z'
loop_
 _atom_site_type_symbol
 _atom_site_label
 _atom_site_symmetry_multiplicity
 _atom_site_fract_x
 _atom_site_fract_y
 _atom_site_fract_z
 _atom_site_occupancy
  Zn  Zn0  1  0.36691841  0.38433024  0.00763037  1
  O  O1  1  0.27590355  0.17592285  0.01388317  1
  C  C2  1  0.47572873  0.28555310  0.09886365  1
  O  O3  1  0.43837860  0.30728737  0.14955478  1
  C  C4  1  0.22968762  0.23693281  0.03233694  1
  C  C5  1  0.12201758  0.24259944  0.01652851  1
  O  O6  1  0.18790555  0.32692859  0.23770278  1
  C  C7  1  0.09648009  0.31229676  0.22872998  1
  O  O8  1  0.06337115  0.31767381  0.17721739  1
  C  C9  1  0.08095251  0.32696413  0.02935109  1
  C  C10  1  0.44830593  0.11857080  0.10349721  1
  Zn  Zn11  1  0.29399710  0.28506661  0.17240492  1
  H  H12  1  0.42137669  0.12280331  0.15241071  1
  O  O13  1  0.26892329  0.30006885  0.06795362  1
  H  H14  1  0.11951004  0.37981210  0.05079484  1
  O  O15  1  0.49137936  0.34763563  0.05958485  1
  C  C16  1  0.48954511  0.18988466  0.07325816  1
  O  O17  1  0.30889242  0.17159288  0.23354346  1
  C  C18  1  0.45885577  0.02741827  0.07859734  1
  C  C19  1  0.49704919  0.01471040  0.01903221  1
  C  C20  1  0.08686646  0.24495809  0.32859493  1
  H  H21  1  0.22131205  0.29741361  0.40743191  1
  C  C22  1  0.37453252  0.30309021  0.43020959  1
  C  C23  1  0.28112804  0.26692207  0.43386969  1
  C  C24  1  0.34911663  0.13619491  0.48922179  1
  C  C25  1  0.03163157  0.26525717  0.27565576  1
  C  C26  1  0.26679987  0.18455137  0.46616820  1
  C  C27  1  0.16647037  0.14866289  0.45993616  1
  H  H28  1  0.16688383  0.25198222  0.33112181  1
  C  C29  1  0.45221322  0.25807604  0.45935144  1
  C  C30  1  0.08454380  0.15572841  0.42493412  1
  O  O31  1  0.45701822  0.15750883  0.26749083  1
  C  C32  1  0.39050538  0.39409051  0.39642908  1
  C  C33  1  0.44167965  0.17253347  0.48626961  1
  O  O34  1  0.31695324  0.42052550  0.36550210  1
  O  O35  1  0.46660294  0.43295436  0.39780907  1
  C  C36  1  0.33399238  0.06836648  0.31166434  1
  C  C37  1  0.03211698  0.19613962  0.37109323  1
  H  H38  1  0.17788362  0.08428424  0.28603043  1
  C  C39  1  0.23299198  0.05195963  0.31703447  1
  C  C40  1  0.36947787  0.13681698  0.26783580  1
  Zn  Zn41  1  0.08079376  0.04898099  0.49181128  1
  C  C42  1  0.40609438  0.03063536  0.34952075  1
  H  H43  1  0.48376720  0.04855592  0.34991749  1
  O  O44  1  0.05457085  0.01111618  0.32620297  1
  C  C45  1  0.28989240  0.27347725  0.61165499  1
  C  C46  1  0.24761390  0.12079480  0.60143675  1
  C  C47  1  0.37483995  0.16310860  0.67376974  1
  C  C48  1  0.27670156  0.37668329  0.59553614  1
  C  C49  1  0.22580923  0.21291210  0.58609324  1
  H  H50  1  0.40499205  0.31320526  0.67028058  1
  H  H51  1  0.16819745  0.23098390  0.54913672  1
  C  C52  1  0.19355899  0.05596446  0.56451071  1
  H  H53  1  0.10059003  0.29690984  0.71990996  1
  C  C54  1  0.36358499  0.25208617  0.65265690  1
  O  O55  1  0.21809705  0.39045240  0.55732728  1
  C  C56  1  0.32358012  0.09363207  0.64481793  1
  O  O57  1  0.44973841  0.05390019  0.73070878  1
  C  C58  1  0.12137156  0.03588658  0.69229153  1
  O  O59  1  0.33471030  0.44020893  0.61350609  1
  O  O60  1  0.04744623  0.46473721  0.72253417  1
  C  C61  1  0.44911516  0.13593598  0.71997429  1
  H  H62  1  0.34454416  0.02311424  0.65237352  1
  C  C63  1  0.08779843  0.11082145  0.68371716  1
  C  C64  1  0.05529281  0.28316971  0.67885255  1
  C  C65  1  0.04940314  0.19292892  0.65631960  1
  C  C66  1  0.00245661  0.44799136  0.67491616  1
  C  C67  1  0.00470009  0.35269965  0.65150426  1
  H  H68  1  0.34251275  0.06641154  0.50696859  1
  C  C69  1  0.02616714  0.04311148  0.82306191  1
  H  H70  1  0.46808849  0.44199188  0.80466631  1
  C  C71  1  0.33689693  0.30598775  0.87474258  1
  C  C72  1  0.03531662  0.28723509  0.84707046  1
  H  H73  1  0.19837453  0.44077971  0.88803183  1
  C  C74  1  0.09255445  0.20866381  0.84177769  1
  H  H75  1  0.24256269  0.15433500  0.84958669  1
  C  C76  1  0.05253773  0.12113347  0.82891060  1
  C  C77  1  0.07143560  0.36941222  0.86542021  1
  O  O78  1  0.37255842  0.36629646  0.91034562  1
  C  C79  1  0.17143055  0.37421277  0.87518358  1
  C  C80  1  0.19602074  0.21346815  0.84961392  1
  O  O81  1  0.38837398  0.24854643  0.85146663  1
  C  C82  1  0.22880251  0.29875901  0.86450650  1
  C  C83  1  0.00928084  0.45051460  0.87731563  1
  H  H84  1  0.25495497  0.00797621  0.77426639  1
  C  C85  1  0.47492360  0.48752364  0.84043324  1
  C  C86  1  0.07189006  0.17081702  0.98754413  1
  H  H87  1  0.10620429  0.10840720  0.97966877  1
  Zn  Zn88  1  0.14963305  0.74720493  0.10301850  1
  C  C89  1  0.19148788  0.70725936  0.19205264  1
  H  H90  1  0.25474207  0.84327854  0.21633883  1
  C  C91  1  0.20783780  0.62950525  0.14678424  1
  C  C92  1  0.23927958  0.79491196  0.17716967  1
  C  C93  1  0.34844529  0.88293894  0.10486605  1
  C  C94  1  0.28968324  0.80585407  0.11482234  1
  C  C95  1  0.29014975  0.73052722  0.06775353  1
  C  C96  1  0.39592993  0.95036678  0.09646405  1
  C  C97  1  0.24777863  0.56299285  0.04207437  1
  C  C98  1  0.23728997  0.64321336  0.08105959  1
  H  H99  1  0.34053497  0.73363421  0.02558562  1
  H  H100  1  0.18328045  0.55993497  0.15805542  1
  C  C101  1  0.49397334  0.76354261  0.24176802  1
  C  C102  1  0.46852474  0.67684896  0.22406551  1
  H  H103  1  0.46038917  0.58757227  0.14560536  1
  C  C104  1  0.49238839  0.64736668  0.00259953  1
  O  O105  1  0.18618936  0.54263600  0.00119013  1
  C  C106  1  0.48645660  0.64952758  0.16459037  1
  O  O107  1  0.30994791  0.50686174  0.05593287  1
  H  H108  1  0.25479542  0.88260764  0.42011181  1
  Zn  Zn109  1  0.26309617  0.55255544  0.34615166  1
  C  C110  1  0.16068154  0.65881129  0.45273041  1
  Zn  Zn111  1  0.03592839  0.77150508  0.35317381  1
  O  O112  1  0.06124236  0.90028630  0.39091576  1
  O  O113  1  0.37981220  0.65576191  0.31755356  1
  C  C114  1  0.37960994  0.96629279  0.39282393  1
  O  O115  1  0.07685996  0.67685939  0.43514401  1
  C  C116  1  0.27973998  0.94106423  0.39564267  1
  C  C117  1  0.45522537  0.91216423  0.42850569  1
  H  H118  1  0.10078663  0.83465938  0.47083874  1
  O  O119  1  0.16045075  0.60480068  0.27281855  1
  O  O120  1  0.21713035  0.59771205  0.43463404  1
  C  C121  1  0.40590432  0.62042341  0.26746208  1
  O  O122  1  0.14174421  0.74972532  0.28751563  1
  C  C123  1  0.10180902  0.96667093  0.36105580  1
  H  H124  1  0.47294358  0.78830349  0.28713491  1
  C  C125  1  0.21048482  0.98837493  0.36164009  1
  C  C126  1  0.16300746  0.68163030  0.25234103  1
  O  O127  1  0.37040061  0.54693823  0.25631452  1
  C  C128  1  0.19735399  0.72598467  0.49946255  1
  O  O129  1  0.17133717  0.61716246  0.68864734  1
  C  C130  1  0.17357071  0.78139873  0.69196784  1
  C  C131  1  0.19998449  0.87435572  0.54366813  1
  H  H132  1  0.08153758  0.87118152  0.63809710  1
  O  O133  1  0.08274830  0.68967434  0.62323806  1
  C  C134  1  0.13854976  0.69060656  0.66689861  1
  C  C135  1  0.31814347  0.76491352  0.56932464  1
  C  C136  1  0.13438401  0.86430398  0.67502618  1
  C  C137  1  0.28257208  0.70059492  0.53136906  1
  C  C138  1  0.41490397  0.72868950  0.60765403  1
  C  C139  1  0.28503126  0.84734228  0.57915586  1
  C  C140  1  0.15842168  0.94654685  0.70577494  1
  O  O141  1  0.42139439  0.65932981  0.63918059  1
  Zn  Zn142  1  0.30808044  0.56437547  0.66247817  1
  H  H143  1  0.32643184  0.89260887  0.60955706  1
  O  O144  1  0.47666892  0.78458484  0.59922060  1
  C  C145  1  0.17567689  0.97031847  0.54631831  1
  H  H146  1  0.32179187  0.63706073  0.53000488  1
  Zn  Zn147  1  0.48641602  0.86239566  0.51257980  1
  C  C148  1  0.24355711  0.78137025  0.73843245  1
  C  C149  1  0.15967309  0.81299168  0.50136744  1
  C  C150  1  0.27242002  0.86216690  0.76669797  1
  H  H151  1  0.28860582  0.72437644  0.75451164  1
  C  C152  1  0.40913828  0.60240890  0.90319338  1
  Zn  Zn153  1  0.09481714  0.57489095  0.78507614  1
  C  C154  1  0.32181129  0.55392924  0.80169185  1
  O  O155  1  0.24370395  0.59127936  0.81571655  1
  C  C156  1  0.40431119  0.55472572  0.84822319  1
  H  H157  1  0.34619932  0.64712190  0.91084506  1
  C  C158  1  0.03245608  0.76168091  0.84743131  1
  C  C159  1  0.07436711  0.81920202  0.88737224  1
  O  O160  1  0.37888825  0.93299918  0.83742298  1
  C  C161  1  0.35154880  0.85631667  0.81431564  1
  C  C162  1  0.12937043  0.77867267  0.94346602  1
  O  O163  1  0.14727176  0.69571876  0.94318752  1
  H  H164  1  0.03921162  0.68992029  0.85189095  1
  C  C165  1  0.23027920  0.94239055  0.75202206  1
  O  O166  1  0.38537224  0.78474323  0.82936733  1
  Zn  Zn167  1  0.04311395  0.58567992  0.97979592  1
  H  H168  1  0.11404191  0.94933713  0.91240333  1
  C  C169  1  0.07248668  0.91151706  0.87779801  1
  C  C170  1  0.01853005  0.94854847  0.82788359  1
  C  C171  1  0.48962696  0.59645943  0.94410122  1
  O  O172  1  0.33070622  0.50989100  0.75298880  1
  O  O173  1  0.05010570  0.52668569  0.88022276  1
  H  H174  1  0.48945784  0.95274088  0.99224883  1
  O  O175  1  0.14991427  0.82869759  0.98533054  1
  H  H176  1  0.89722193  0.28078258  0.22675816  1
  C  C177  1  0.98204338  0.33341130  0.01679129  1
  C  C178  1  0.92995256  0.41891483  0.03262877  1
  C  C179  1  0.53356415  0.18243429  0.01440332  1
  O  O180  1  0.83923899  0.42572300  0.02455872  1
  O  O181  1  0.98275199  0.48714219  0.04391759  1
  H  H182  1  0.88831192  0.12350803  0.38686761  1
  Zn  Zn183  1  0.72827742  0.16002428  0.44426300  1
  O  O184  1  0.74179524  0.12099934  0.34941964  1
  C  C185  1  0.93014347  0.17261135  0.35869265  1
  C  C186  1  0.77750204  0.15652837  0.30098777  1
  C  C187  1  0.87872413  0.19742201  0.30765484  1
  H  H188  1  0.52777578  0.28724715  0.46065641  1
  O  O189  1  0.72843699  0.14959017  0.25277633  1
  Zn  Zn190  1  0.59711167  0.08936239  0.25900126  1
  C  C191  1  0.93392403  0.25190524  0.26650266  1
  H  H192  1  0.90473647  0.38555072  0.57604764  1
  C  C193  1  0.98716026  0.17456802  0.60478363  1
  H  H194  1  0.96830256  0.10582785  0.58961177  1
  C  C195  1  0.93707080  0.24531830  0.58073497  1
  C  C196  1  0.94551101  0.33468614  0.59984629  1
  C  C197  1  0.86254534  0.23037610  0.52987739  1
  O  O198  1  0.51010594  0.04045238  0.52887405  1
  O  O199  1  0.85135865  0.14777261  0.51134898  1
  O  O200  1  0.81608419  0.28748245  0.50114830  1
  O  O201  1  0.51290589  0.18726728  0.74045508  1
  O  O202  1  0.61298365  0.14436582  0.50641241  1
  C  C203  1  0.52528995  0.11455799  0.50652199  1
  O  O204  1  0.61247462  0.14764448  0.90006845  1
  C  C205  1  0.92933845  0.10058009  0.95445557  1
  C  C206  1  0.57419819  0.08449002  0.92710222  1
  C  C207  1  0.62993662  0.40807394  0.87025949  1
  O  O208  1  0.92084337  0.44475889  0.88014233  1
  H  H209  1  0.84161464  0.27385483  0.98349456  1
  H  H210  1  0.95872233  0.27935185  0.83708263  1
  Zn  Zn211  1  0.80110181  0.48657505  0.93725101  1
  C  C212  1  0.53125392  0.09507629  0.99139395  1
  O  O213  1  0.69242991  0.39529941  0.91032390  1
  O  O214  1  0.61950891  0.35755187  0.82288290  1
  Zn  Zn215  1  0.54685601  0.23005289  0.82943266  1
  H  H216  1  0.55738659  0.24181214  0.98694678  1
  O  O217  1  0.56459067  0.00707956  0.90280439  1
  C  C218  1  0.96994232  0.18527560  0.98013214  1
  C  C219  1  0.55488747  0.48024551  0.87895146  1
  C  C220  1  0.88655694  0.03082966  0.94303196  1
  H  H221  1  0.75551508  0.01881809  0.85180347  1
  C  C222  1  0.92152269  0.26696842  0.99275867  1
  C  C223  1  0.54693885  0.79639833  0.13518306  1
  H  H224  1  0.57101408  0.84487131  0.09868248  1
  C  C225  1  0.56123511  0.91875393  0.21586680  1
  C  C226  1  0.53493612  0.82201494  0.19795319  1
  C  C227  1  0.51573358  0.70992051  0.11777202  1
  C  C228  1  0.50363129  0.68153222  0.05275587  1
  O  O229  1  0.58637535  0.98196418  0.18092301  1
  C  C230  1  0.62564466  0.81031823  0.42800669  1
  O  O231  1  0.80421803  0.76876709  0.26378243  1
  H  H232  1  0.65212790  0.82781159  0.32979151  1
  O  O233  1  0.91190406  0.70739578  0.32456952  1
  C  C234  1  0.80087686  0.70002015  0.41999936  1
  C  C235  1  0.76090518  0.74393270  0.37096015  1
  C  C236  1  0.67811003  0.79630840  0.37322339  1
  C  C237  1  0.82625560  0.74288042  0.31426382  1
  H  H238  1  0.87138037  0.66664697  0.41327827  1
  C  C239  1  0.53749637  0.86660760  0.41797633  1
  C  C240  1  0.74753491  0.71495435  0.47576748  1
  O  O241  1  0.55088442  0.94104481  0.26973745  1
  C  C242  1  0.66212200  0.76371834  0.48247310  1
  O  O243  1  0.75481493  0.67898933  0.58594977  1
  H  H244  1  0.62407247  0.76472718  0.52812597  1
  O  O245  1  0.91295319  0.74443157  0.70143650  1
  C  C246  1  0.78865432  0.67571630  0.53418063  1
  O  O247  1  0.87620085  0.63982805  0.53294102  1
  Zn  Zn248  1  0.92609416  0.63316562  0.62763860  1
  O  O249  1  0.94057935  0.50155175  0.65174539  1
  H  H250  1  0.93123685  0.91447472  0.74601465  1
  Zn  Zn251  1  0.51120187  0.98801903  0.80696721  1
  O  O252  1  0.67738771  0.80151405  0.76083359  1
  C  C253  1  0.83975169  0.95106315  0.91960347  1
  C  C254  1  0.85636466  0.69877974  0.94349983  1
  H  H255  1  0.74623882  0.72930839  0.84571346  1
  O  O256  1  0.82068808  0.62946253  0.92144610  1
  C  C257  1  0.77349989  0.78891495  0.86913960  1
  C  C258  1  0.87523513  0.86873057  0.94664109  1
  H  H259  1  0.63348574  0.53750925  0.95850699  1
  C  C260  1  0.77379058  0.95336582  0.87009419  1
  C  C261  1  0.83669554  0.79216178  0.92039815  1
  O  O262  1  0.91886753  0.69254074  0.98366908  1
  O  O263  1  0.64492810  0.94430781  0.76313259  1
  C  C264  1  0.74705364  0.87213163  0.84548628  1
  C  C265  1  0.56474370  0.53511283  0.93039217  1
  C  C266  1  0.68203559  0.87503677  0.78722329  1
  O  O267  1  0.95859458  0.64316806  0.76764280  1
  C  C268  1  0.97584928  0.89162212  0.78405330  1
  H  H269  1  0.93475563  0.86894770  0.98055407  1
  C  C270  1  0.94999652  0.72751957  0.75337514  1
  C  C271  1  0.98588687  0.79973567  0.79325471  1
