# generated using pymatgen
data_Zn2H14C33O8
_symmetry_space_group_name_H-M   'P 1'
_cell_length_a   8.85813129
_cell_length_b   16.43214829
_cell_length_c   24.67102931
_cell_angle_alpha   90.00000000
_cell_angle_beta   90.00000000
_cell_angle_gamma   90.00000000
_symmetry_Int_Tables_number   1
_chemical_formula_structural   Zn2H14C33O8
_chemical_formula_sum   'Zn8 H56 C132 O32'
_cell_volume   3591.06881478
_cell_formula_units_Z   4
loop_
 _symmetry_equiv_pos_site_id
 _symmetry_equiv_pos_as_xyz
  1  'x, y, z'
loop_
 _atom_site_type_symbol
 _atom_site_label
 _atom_site_symmetry_multiplicity
 _atom_site_fract_x
 _atom_site_fract_y
 _atom_site_fract_z
 _atom_site_occupancy
  H  H0  1  0.48108085  0.00181488  0.02241752  1
  C  C1  1  0.03008689  0.06069791  0.07011539  1
  C  C2  1  0.44564797  0.17393318  0.00466727  1
  H  H3  1  0.27108209  0.16122015  0.18185928  1
  C  C4  1  0.04413004  0.40720468  0.19294540  1
  C  C5  1  0.37715488  0.04660218  0.15243925  1
  C  C6  1  0.31738309  0.16187347  0.09507902  1
  C  C7  1  0.02757447  0.37755561  0.13670597  1
  H  H8  1  0.00574703  0.44278192  0.00562202  1
  H  H9  1  0.30518786  0.40913618  0.15974716  1
  H  H10  1  0.26738386  0.35427519  0.06795248  1
  H  H11  1  0.12062523  0.03017306  0.09354606  1
  C  C12  1  0.39294548  0.37434310  0.13944895  1
  C  C13  1  0.04080024  0.42674647  0.24004846  1
  C  C14  1  0.40585816  0.12420627  0.05257591  1
  C  C15  1  0.37892953  0.34251336  0.08831194  1
  H  H16  1  0.27704343  0.22615269  0.09200486  1
  C  C17  1  0.31846524  0.12856317  0.14739413  1
  C  C18  1  0.00742575  0.40151319  0.04005842  1
  C  C19  1  0.43225000  0.03855008  0.05713922  1
  H  H20  1  0.03682236  0.24336040  0.16055049  1
  C  C21  1  0.49775187  0.25640990  0.00821404  1
  C  C22  1  0.04745162  0.09096205  0.01792058  1
  C  C23  1  0.02507084  0.43023828  0.09198331  1
  C  C24  1  0.02586071  0.28785795  0.12577403  1
  C  C25  1  0.00349457  0.25642124  0.07466444  1
  H  H26  1  0.00088236  0.18987024  0.07114203  1
  C  C27  1  0.40655139  0.01333848  0.20769656  1
  H  H28  1  0.03528398  0.49375934  0.09968449  1
  O  O29  1  0.05874936  0.08467225  0.39966548  1
  O  O30  1  0.35007727  0.10227463  0.48864155  1
  C  C31  1  0.06657931  0.33373459  0.43196853  1
  O  O32  1  0.08377414  0.34744831  0.48118710  1
  C  C33  1  0.04073818  0.40128485  0.39363586  1
  Zn  Zn34  1  0.24250539  0.16720593  0.42053299  1
  O  O35  1  0.08313452  0.26447594  0.41256796  1
  H  H36  1  0.00079222  0.32198335  0.32166906  1
  C  C37  1  0.01645545  0.38609787  0.33565010  1
  O  O38  1  0.35304850  0.20843467  0.28630894  1
  O  O39  1  0.39805152  0.21793728  0.37311774  1
  C  C40  1  0.43875380  0.20156792  0.32410447  1
  C  C41  1  0.05519372  0.45590995  0.29477118  1
  C  C42  1  0.12181726  0.47782366  0.41252515  1
  H  H43  1  0.14064568  0.49224651  0.45612336  1
  H  H44  1  0.00271890  0.07411893  0.29970579  1
  C  C45  1  0.42371089  0.09650873  0.58024770  1
  C  C46  1  0.22250611  0.37742325  0.63400755  1
  C  C47  1  0.44395650  0.10704464  0.73006851  1
  C  C48  1  0.48144124  0.10827911  0.67331188  1
  O  O49  1  0.16864926  0.37968675  0.58741358  1
  O  O50  1  0.17324021  0.33574943  0.67267355  1
  C  C51  1  0.37632574  0.08474613  0.63306063  1
  C  C52  1  0.07117181  0.09162118  0.69870638  1
  H  H53  1  0.26666748  0.06692466  0.64328125  1
  O  O54  1  0.17424624  0.06879958  0.54839768  1
  C  C55  1  0.30592930  0.08776762  0.53630095  1
  C  C56  1  0.35265233  0.43344764  0.64493091  1
  Zn  Zn57  1  0.06901228  0.21982282  0.68798293  1
  C  C58  1  0.40160108  0.43526207  0.69918700  1
  C  C59  1  0.00341777  0.13125843  0.74121769  1
  H  H60  1  0.35716876  0.39142779  0.73052024  1
  C  C61  1  0.08749835  0.00225714  0.68260270  1
  C  C62  1  0.41046779  0.48953662  0.60826110  1
  H  H63  1  0.36093990  0.48940328  0.56648392  1
  C  C64  1  0.29390863  0.14204033  0.86002650  1
  C  C65  1  0.29944247  0.16080033  0.91548145  1
  C  C66  1  0.16243807  0.40989319  0.86136053  1
  C  C67  1  0.03872491  0.46367620  0.84515562  1
  H  H68  1  0.19765216  0.15916726  0.83335438  1
  C  C69  1  0.41729165  0.13154259  0.95137502  1
  C  C70  1  0.41659860  0.10251111  0.77831292  1
  H  H71  1  0.20194976  0.19874473  0.93068558  1
  C  C72  1  0.42172540  0.10415198  0.83747967  1
  H  H73  1  0.24483940  0.31627759  0.91699546  1
  C  C74  1  0.15777409  0.36110503  0.90785357  1
  H  H75  1  0.26362933  0.41585183  0.83549225  1
  C  C76  1  0.01252955  0.36020617  0.93468419  1
  H  H77  1  0.15636528  0.09077116  0.99574648  1
  C  C78  1  0.05872585  0.49833581  0.79169119  1
  H  H79  1  0.45678170  0.93193920  0.10640465  1
  C  C80  1  0.41323833  0.99564230  0.10604864  1
  H  H81  1  0.25091440  0.92670852  0.33188914  1
  C  C82  1  0.41268231  0.87936898  0.38738803  1
  C  C83  1  0.31504434  0.85560694  0.43392384  1
  C  C84  1  0.20476782  0.62540672  0.39592630  1
  H  H85  1  0.16789435  0.58070875  0.28674822  1
  O  O86  1  0.31678450  0.61757092  0.42492207  1
  O  O87  1  0.18186625  0.86962857  0.43020987  1
  C  C88  1  0.14354173  0.54922280  0.37572667  1
  C  C89  1  0.13018709  0.53445910  0.31672289  1
  O  O90  1  0.12096923  0.68888218  0.39400600  1
  C  C91  1  0.37145890  0.91739075  0.34020998  1
  O  O92  1  0.37660244  0.82493682  0.47621479  1
  Zn  Zn93  1  0.44116724  0.70351896  0.48211918  1
  Zn  Zn94  1  0.02574188  0.76241163  0.45208859  1
  C  C95  1  0.48131113  0.94323205  0.30092016  1
  C  C96  1  0.44212225  0.98165415  0.25032638  1
  C  C97  1  0.06911160  0.53489902  0.74880839  1
  C  C98  1  0.01164562  0.98055600  0.63437076  1
  C  C99  1  0.00614504  0.60255347  0.54738152  1
  C  C100  1  0.17462764  0.94451455  0.71235785  1
  C  C101  1  0.20118857  0.87120693  0.68490766  1
  O  O102  1  0.01517578  0.82464718  0.52957838  1
  H  H103  1  0.17443928  0.79736812  0.61097876  1
  C  C104  1  0.14659885  0.85133613  0.63329038  1
  H  H105  1  0.09426047  0.50672509  0.63887982  1
  C  C106  1  0.31172649  0.81584227  0.71367380  1
  O  O107  1  0.37381240  0.76339972  0.68079811  1
  O  O108  1  0.06475950  0.53645268  0.53148261  1
  O  O109  1  0.48068930  0.61217967  0.53678739  1
  C  C110  1  0.04547466  0.90476497  0.60989677  1
  C  C111  1  0.03767577  0.59083548  0.70247752  1
  C  C112  1  0.04744502  0.56880424  0.64668440  1
  H  H113  1  0.23792307  0.96570095  0.74793669  1
  O  O114  1  0.35249586  0.81722756  0.76034046  1
  H  H115  1  0.58347815  0.16615697  0.22409967  1
  C  C116  1  0.83805765  0.08776431  0.20347260  1
  C  C117  1  0.53408266  0.36134109  0.16989078  1
  C  C118  1  0.88840246  0.07975067  0.09766240  1
  C  C119  1  0.75655057  0.11273333  0.06899580  1
  C  C120  1  0.77400731  0.14191548  0.01714350  1
  C  C121  1  0.65641541  0.31389598  0.14596046  1
  C  C122  1  0.86229140  0.07614955  0.15563884  1
  H  H123  1  0.65196368  0.11730465  0.09122027  1
  H  H124  1  0.75931843  0.30633429  0.17087010  1
  C  C125  1  0.64533573  0.28982880  0.09181444  1
  H  H126  1  0.74499537  0.25811343  0.07432852  1
  C  C127  1  0.54789096  0.38809824  0.22632038  1
  C  C128  1  0.99656460  0.31613492  0.03102611  1
  H  H129  1  0.50087618  0.42568980  0.00832914  1
  C  C130  1  0.50278613  0.29837119  0.06341675  1
  H  H131  1  0.63971033  0.15981849  0.39872288  1
  C  C132  1  0.88515887  0.10009512  0.30259628  1
  C  C133  1  0.92494989  0.10104158  0.40040971  1
  C  C134  1  0.59028777  0.43860494  0.32900875  1
  C  C135  1  0.82166433  0.11872435  0.35250014  1
  C  C136  1  0.55457009  0.40743141  0.27405534  1
  H  H137  1  0.59868313  0.32226242  0.37623693  1
  O  O138  1  0.85321097  0.10434090  0.44508291  1
  C  C139  1  0.69344408  0.37309651  0.46926382  1
  C  C140  1  0.65032663  0.42719097  0.42235010  1
  C  C141  1  0.61204723  0.38900896  0.37465570  1
  C  C142  1  0.59538645  0.17138078  0.31171790  1
  C  C143  1  0.68271856  0.15497127  0.35818564  1
  C  C144  1  0.64978922  0.15737399  0.25941950  1
  O  O145  1  0.66361111  0.29964176  0.46774243  1
  C  C146  1  0.78545292  0.11297231  0.25665122  1
  H  H147  1  0.59547464  0.13240695  0.51984975  1
  O  O148  1  0.83840935  0.24717362  0.62862032  1
  C  C149  1  0.62153225  0.14467924  0.66022838  1
  C  C150  1  0.79744058  0.19886588  0.59426897  1
  O  O151  1  0.86011419  0.18726535  0.55070574  1
  H  H152  1  0.70427534  0.16088021  0.69200278  1
  C  C153  1  0.64915807  0.15615026  0.60574808  1
  O  O154  1  0.74602056  0.40650524  0.51115606  1
  C  C155  1  0.56490664  0.12774441  0.56290919  1
  H  H156  1  0.94500498  0.02569018  0.61280705  1
  Zn  Zn157  1  0.94407790  0.06507252  0.51794055  1
  Zn  Zn158  1  0.98156130  0.41435990  0.54058859  1
  C  C159  1  0.50788449  0.49349420  0.71390698  1
  C  C160  1  0.90771814  0.47105576  0.88060780  1
  C  C161  1  0.98832700  0.29348506  0.97468105  1
  H  H162  1  0.58738742  0.28937081  0.83090971  1
  H  H163  1  0.57756478  0.21184213  0.90704631  1
  H  H164  1  0.95615016  0.06180666  0.92561972  1
  C  C165  1  0.53343190  0.07843619  0.92679661  1
  H  H166  1  0.78897042  0.41514872  0.94954911  1
  H  H167  1  0.96293782  0.01100182  0.82453706  1
  C  C168  1  0.54650630  0.07156306  0.87049054  1
  C  C169  1  0.58047624  0.27435849  0.91251877  1
  C  C170  1  0.94809302  0.10458678  0.88907971  1
  H  H171  1  0.62732048  0.05858364  0.95126192  1
  C  C172  1  0.92372138  0.13935967  0.99718478  1
  C  C173  1  0.94281251  0.21262207  0.96076311  1
  H  H174  1  0.64690209  0.04300519  0.85260659  1
  C  C175  1  0.56578844  0.41166170  0.87025097  1
  C  C176  1  0.57596789  0.32448158  0.86810407  1
  C  C177  1  0.89063574  0.41579097  0.92306428  1
  C  C178  1  0.95096382  0.07610835  0.83585143  1
  H  H179  1  0.89310667  0.26397771  0.77202955  1
  C  C180  1  0.92593429  0.18852672  0.90493125  1
  C  C181  1  0.90944509  0.24853791  0.86104398  1
  C  C182  1  0.94183616  0.13849411  0.79587605  1
  H  H183  1  0.89580792  0.31344248  0.87105061  1
  C  C184  1  0.55214134  0.45644866  0.81866360  1
  C  C185  1  0.54013520  0.30891523  0.96351013  1
  C  C186  1  0.91102505  0.22336059  0.80784431  1
  C  C187  1  0.54093140  0.44606207  0.92417218  1
  C  C188  1  0.54456447  0.48183739  0.77233813  1
  C  C189  1  0.52675795  0.39579383  0.96870775  1
  H  H190  1  0.68992771  0.18496204  0.99883158  1
  H  H191  1  0.68640024  0.53905614  0.47387650  1
  C  C192  1  0.63576205  0.55793758  0.38711569  1
  C  C193  1  0.83846130  0.87417357  0.37144536  1
  C  C194  1  0.56989745  0.86925819  0.39464727  1
  H  H195  1  0.56162178  0.56417353  0.30446963  1
  H  H196  1  0.60577048  0.84470756  0.43349137  1
  C  C197  1  0.64308912  0.92722019  0.30618939  1
  C  C198  1  0.67143842  0.89129825  0.35505966  1
  O  O199  1  0.86247928  0.83996742  0.41759973  1
  O  O200  1  0.64953389  0.69142665  0.43347951  1
  O  O201  1  0.61861126  0.68441159  0.34494828  1
  C  C202  1  0.63036768  0.65348202  0.38857155  1
  O  O203  1  0.93612628  0.89908009  0.34196300  1
  H  H204  1  0.72379348  0.94189150  0.27476775  1
  C  C205  1  0.59523586  0.52370973  0.33878047  1
  C  C206  1  0.65672966  0.51133992  0.43325452  1
  Zn  Zn207  1  0.93331822  0.50100903  0.35950466  1
  C  C208  1  0.91997753  0.71609788  0.67694832  1
  H  H209  1  0.64219313  0.59719900  0.69015827  1
  H  H210  1  0.89310306  0.74009574  0.59146029  1
  O  O211  1  0.75521748  0.82868332  0.66560742  1
  C  C212  1  0.85159434  0.79851520  0.69971437  1
  O  O213  1  0.89250015  0.94085242  0.53806646  1
  O  O214  1  0.62924214  0.67581660  0.59557424  1
  C  C215  1  0.92633418  0.69548551  0.62349481  1
  C  C216  1  0.99226130  0.62055801  0.60751056  1
  O  O217  1  0.95518901  0.65156671  0.51528879  1
  C  C218  1  0.96670034  0.66337778  0.71807382  1
  Zn  Zn219  1  0.56766265  0.77352736  0.63886911  1
  O  O220  1  0.86881297  0.82933339  0.74270186  1
  C  C221  1  0.50960880  0.55283653  0.62460701  1
  C  C222  1  0.56187332  0.55315760  0.67751346  1
  C  C223  1  0.54019618  0.61722466  0.58291105  1
  C  C224  1  0.97835296  0.88649581  0.55492505  1
  H  H225  1  0.81916891  0.51257962  0.87187730  1
  H  H226  1  0.95428368  0.68079511  0.76128988  1
  H  H227  1  0.54445972  0.51084059  0.92799292  1
