# generated using pymatgen
data_CuH6C16(NO2)2
_symmetry_space_group_name_H-M   'P 1'
_cell_length_a   15.72138807
_cell_length_b   24.52125598
_cell_length_c   13.26791092
_cell_angle_alpha   90.00000000
_cell_angle_beta   90.00000000
_cell_angle_gamma   90.00000000
_symmetry_Int_Tables_number   1
_chemical_formula_structural   CuH6C16(NO2)2
_chemical_formula_sum   'Cu12 H72 C192 N24 O48'
_cell_volume   5114.88820663
_cell_formula_units_Z   12
loop_
 _symmetry_equiv_pos_site_id
 _symmetry_equiv_pos_as_xyz
  1  'x, y, z'
loop_
 _atom_site_type_symbol
 _atom_site_label
 _atom_site_symmetry_multiplicity
 _atom_site_fract_x
 _atom_site_fract_y
 _atom_site_fract_z
 _atom_site_occupancy
  N  N0  1  0.23132387  0.12645340  0.37858674  1
  Cu  Cu1  1  0.20772484  0.20883214  0.37555286  1
  O  O2  1  0.35143972  0.20679781  0.17391029  1
  O  O3  1  0.31625888  0.22568223  0.33138506  1
  O  O4  1  0.09678736  0.19338470  0.42307293  1
  C  C5  1  0.13503686  0.04282688  0.41481749  1
  C  C6  1  0.19218643  0.08879763  0.39348120  1
  C  C7  1  0.33575033  0.23854937  0.24011809  1
  C  C8  1  0.03501302  0.21305804  0.47765467  1
  H  H9  1  0.00125004  0.11199249  0.41898789  1
  C  C10  1  0.16241373  0.12460339  0.59244937  1
  C  C11  1  0.10916954  0.08061562  0.60044223  1
  C  C12  1  0.16060304  0.16707361  0.74214469  1
  C  C13  1  0.20009751  0.16678010  0.64461396  1
  H  H14  1  0.24730581  0.19870138  0.61658734  1
  C  C15  1  0.09954238  0.12897099  0.76509929  1
  C  C16  1  0.06894908  0.08579371  0.70356289  1
  C  C17  1  0.17437535  0.21329157  0.81579316  1
  H  H18  1  0.07265926  0.13777381  0.84138783  1
  O  O19  1  0.11840314  0.21670724  0.88989385  1
  C  C20  1  0.00644172  0.04860299  0.74070848  1
  O  O21  1  0.23948135  0.23708557  0.80873527  1
  C  C22  1  0.09433180  0.04118131  0.51516975  1
  H  H23  1  0.00226526  0.00149257  0.61153314  1
  C  C24  1  0.03212746  0.00050600  0.53486426  1
  H  H25  1  0.33078914  0.31587972  0.37862634  1
  H  H26  1  0.11090239  0.38069754  0.46234539  1
  C  C27  1  0.31049652  0.48175269  0.07603612  1
  C  C28  1  0.33892751  0.38904746  0.28339511  1
  C  C29  1  0.16066681  0.40123694  0.19786888  1
  C  C30  1  0.34845485  0.29863988  0.21539251  1
  C  C31  1  0.34048796  0.33143631  0.30251965  1
  H  H32  1  0.38948969  0.29017462  0.06148315  1
  C  C33  1  0.37799743  0.31802114  0.12395551  1
  N  N34  1  0.27957923  0.44128383  0.43654244  1
  C  C35  1  0.36188545  0.41186585  0.18489646  1
  C  C36  1  0.38367473  0.37531511  0.10866083  1
  H  H37  1  0.28631218  0.44811845  0.02803663  1
  H  H38  1  0.16797417  0.46354504  0.31549795  1
  H  H39  1  0.17982416  0.36627635  0.24327281  1
  H  H40  1  0.40656936  0.39045788  0.03807087  1
  C  C41  1  0.10904016  0.43046632  0.02480569  1
  C  C42  1  0.30890641  0.41927421  0.36883442  1
  C  C43  1  0.15738117  0.45364521  0.23518552  1
  C  C44  1  0.13426233  0.39204928  0.09411946  1
  C  C45  1  0.35425603  0.47165019  0.16638940  1
  N  N46  1  0.18569193  0.28990147  0.39500119  1
  C  C47  1  0.13407908  0.33459379  0.05758814  1
  C  C48  1  0.10497562  0.48400094  0.05945577  1
  O  O49  1  0.15715535  0.29991955  0.11843461  1
  C  C50  1  0.19356876  0.30607969  0.47481958  1
  C  C51  1  0.12759204  0.49551408  0.16614297  1
  C  C52  1  0.20085047  0.33136588  0.57320040  1
  C  C53  1  0.29124483  0.35160019  0.70883292  1
  C  C54  1  0.28424261  0.33703215  0.60779636  1
  C  C55  1  0.13805609  0.34543775  0.74052466  1
  H  H56  1  0.33823330  0.33188866  0.55844049  1
  C  C57  1  0.04085377  0.35897383  0.59993557  1
  O  O58  1  0.44016060  0.36021455  0.71212338  1
  H  H59  1  0.08390039  0.34706047  0.78881115  1
  C  C60  1  0.36889883  0.36325773  0.75977005  1
  H  H61  1  0.23205901  0.35369322  0.85905651  1
  C  C62  1  0.12503219  0.34140238  0.63606449  1
  O  O63  1  0.11410964  0.32482901  0.96594260  1
  Cu  Cu64  1  0.43174519  0.43746352  0.87088158  1
  C  C65  1  0.21964381  0.34877794  0.77678655  1
  O  O66  1  0.36931589  0.37946157  0.85164866  1
  H  H67  1  0.08810111  0.41385992  0.94826323  1
  Cu  Cu68  1  0.03265334  0.27414385  0.91327826  1
  C  C69  1  0.04804646  0.38057960  0.50007581  1
  O  O70  1  0.49565576  0.49558753  0.91405504  1
  O  O71  1  0.03372311  0.25897015  0.50469697  1
  N  N72  1  0.46946678  0.51081625  0.38572108  1
  C  C73  1  0.37131745  0.57286106  0.18236998  1
  C  C74  1  0.12731970  0.61079197  0.36104894  1
  C  C75  1  0.32134565  0.63044069  0.03629964  1
  O  O76  1  0.35627335  0.67432625  0.06906682  1
  O  O77  1  0.28152405  0.72773784  0.22642799  1
  C  C78  1  0.12190883  0.54943489  0.21085918  1
  C  C79  1  0.33222288  0.57698871  0.09009436  1
  C  C80  1  0.21634377  0.53730282  0.37524149  1
  H  H81  1  0.39485827  0.60630377  0.22703759  1
  Cu  Cu82  1  0.30666066  0.74302717  0.08216691  1
  C  C83  1  0.16106468  0.56559385  0.30977942  1
  C  C84  1  0.06609200  0.64575840  0.31712381  1
  C  C85  1  0.03909502  0.63871699  0.21624391  1
  H  H86  1  0.14892465  0.62100475  0.43756075  1
  C  C87  1  0.43195282  0.51594199  0.31329145  1
  N  N88  1  0.26611728  0.51808031  0.42891836  1
  C  C89  1  0.03617214  0.69152987  0.38502271  1
  C  C90  1  0.33352007  0.72296883  0.30271307  1
  O  O91  1  0.06195043  0.69581712  0.46999279  1
  C  C92  1  0.06824440  0.59077820  0.16844261  1
  C  C93  1  0.29576592  0.53282478  0.03668129  1
  C  C94  1  0.38377486  0.51920971  0.22074512  1
  O  O95  1  0.40717696  0.71011270  0.29366351  1
  C  C96  1  0.36856225  0.74095390  0.48537485  1
  H  H97  1  0.43388006  0.73200918  0.46768658  1
  H  H98  1  0.03490615  0.59024658  0.09248631  1
  C  C99  1  0.30674777  0.73880038  0.40957368  1
  C  C100  1  0.21785390  0.74697447  0.41771383  1
  H  H101  1  0.17608258  0.74159914  0.35544432  1
  O  O102  1  0.27522989  0.62972341  0.96311259  1
  H  H103  1  0.26082833  0.53779601  0.96695069  1
  N  N104  1  0.03471588  0.54954426  0.93492837  1
  C  C105  1  0.48355981  0.54887600  0.91199685  1
  O  O106  1  0.44849497  0.56986691  0.84103272  1
  H  H107  1  0.38253860  0.74050901  0.64577720  1
  C  C108  1  0.06767530  0.52380607  0.99318061  1
  O  O109  1  0.40384485  0.90159292  0.36011353  1
  C  C110  1  0.06144494  0.96064506  0.37765437  1
  C  C111  1  0.04704727  0.91149990  0.31097041  1
  N  N112  1  0.05004375  0.82185137  0.48611899  1
  O  O113  1  0.12287056  0.81033284  0.03375787  1
  H  H114  1  0.15378245  0.99744864  0.27432415  1
  O  O115  1  0.25283044  0.80779891  0.08045350  1
  O  O116  1  0.09964445  0.90585686  0.24864195  1
  C  C117  1  0.01282575  0.96001611  0.46515416  1
  C  C118  1  0.19635782  0.81268528  0.01043632  1
  C  C119  1  0.34944468  0.89315455  0.31500208  1
  C  C120  1  0.12032105  0.99972172  0.34620868  1
  H  H121  1  0.04016934  0.85724729  0.53152095  1
  C  C122  1  0.39949683  0.82525682  0.72324602  1
  C  C123  1  0.14237181  0.80889340  0.82966103  1
  C  C124  1  0.24496386  0.79864422  0.69561214  1
  C  C125  1  0.29477273  0.82036704  0.86538086  1
  H  H126  1  0.10575813  0.78873032  0.67836150  1
  C  C127  1  0.33904198  0.75101444  0.58232226  1
  H  H128  1  0.07714592  0.80656602  0.85780357  1
  C  C129  1  0.21153236  0.81554832  0.89743481  1
  C  C130  1  0.15985819  0.79986640  0.72979075  1
  C  C131  1  0.31434283  0.82073272  0.76024919  1
  H  H132  1  0.34818821  0.82683512  0.92137797  1
  C  C133  1  0.25488145  0.77155578  0.59747554  1
  N  N134  1  0.46466038  0.83186580  0.68779567  1
  O  O135  1  0.45575764  0.99123298  0.63920714  1
  Cu  Cu136  1  0.48777228  0.86668743  0.55144620  1
  C  C137  1  0.11631901  0.80269625  0.51125024  1
  C  C138  1  0.19439151  0.77245244  0.51125821  1
  N  N139  1  0.64600975  0.10359039  0.20650210  1
  C  C140  1  0.68104675  0.16577000  0.35507361  1
  H  H141  1  0.75944504  0.20544722  0.07651191  1
  C  C142  1  0.95015673  0.12548885  0.46960193  1
  O  O143  1  0.91463382  0.02428339  0.20236557  1
  C  C144  1  0.68693307  0.11270076  0.13706728  1
  N  N145  1  0.68149519  0.12005341  0.33574832  1
  C  C146  1  0.94989640  0.02115651  0.11303862  1
  C  C147  1  0.68463549  0.22171706  0.38570453  1
  C  C148  1  0.73533573  0.11811249  0.04303244  1
  C  C149  1  0.60943606  0.23228421  0.19794168  1
  H  H150  1  0.58321946  0.21269486  0.26584471  1
  C  C151  1  0.57184529  0.22675026  0.10258691  1
  C  C152  1  0.76839570  0.17172974  0.02639817  1
  H  H153  1  0.88410319  0.04779967  0.46639597  1
  H  H154  1  0.52044821  0.19816148  0.09092769  1
  O  O155  1  0.97623212  0.05756135  0.06460260  1
  C  C156  1  0.65721810  0.23526543  0.48565709  1
  C  C157  1  0.87060623  0.22935884  0.92844576  1
  C  C158  1  0.80709211  0.08281116  0.89542561  1
  C  C159  1  0.60115584  0.01411392  0.63014478  1
  H  H160  1  0.67070950  0.14743337  0.61127920  1
  C  C161  1  0.67420546  0.10298822  0.61771008  1
  C  C162  1  0.77580315  0.18810910  0.68537836  1
  C  C163  1  0.75576230  0.07699961  0.60945503  1
  O  O164  1  0.50330572  0.22794908  0.90641251  1
  C  C165  1  0.82792368  0.10972127  0.57748188  1
  N  N166  1  0.73139970  0.20596511  0.74309817  1
  C  C167  1  0.83451022  0.16588558  0.61252070  1
  C  C168  1  0.65582318  0.00641475  0.88460925  1
  C  C169  1  0.82812546  0.17743858  0.95195251  1
  C  C170  1  0.84308642  0.13348041  0.88634034  1
  H  H171  1  0.81718344  0.05117398  0.83830684  1
  H  H172  1  0.53618739  0.09268717  0.62093225  1
  H  H173  1  0.62173464  0.20786673  0.53561526  1
  O  O174  1  0.93900844  0.22780708  0.88083413  1
  H  H175  1  0.88184496  0.13975830  0.81770564  1
  H  H176  1  0.63692448  0.03868312  0.83365513  1
  C  C177  1  0.59933587  0.07192903  0.62197294  1
  C  C178  1  0.90376392  0.19848545  0.57991231  1
  C  C179  1  0.75732905  0.01656243  0.62727469  1
  C  C180  1  0.70729014  0.01849152  0.96807474  1
  N  N181  1  0.95950877  0.01985500  0.77886930  1
  C  C182  1  0.75176456  0.07266222  0.97683544  1
  C  C183  1  0.88705841  0.08968129  0.50181886  1
  H  H184  1  0.91225722  0.23979439  0.61564030  1
  C  C185  1  0.96042324  0.17784071  0.51068697  1
  C  C186  1  0.69366487  0.47047480  0.20852979  1
  C  C187  1  0.72921975  0.32039770  0.46625367  1
  C  C188  1  0.67960466  0.26504102  0.21648053  1
  N  N189  1  0.84661479  0.35873059  0.11766071  1
  C  C190  1  0.63584889  0.42673251  0.22134244  1
  C  C191  1  0.67385448  0.29521965  0.03964852  1
  H  H192  1  0.72304033  0.48982996  0.27677956  1
  C  C193  1  0.67019508  0.46204077  0.02861651  1
  H  H194  1  0.76799494  0.34564174  0.31579559  1
  O  O195  1  0.55235724  0.38479401  0.35457592  1
  C  C196  1  0.78932632  0.33287974  0.13527036  1
  C  C197  1  0.97759471  0.40699430  0.45977294  1
  O  O198  1  0.66359902  0.43401464  0.39412129  1
  C  C199  1  0.74230839  0.31242990  0.36248247  1
  C  C200  1  0.71631164  0.29600315  0.13179468  1
  C  C201  1  0.59565652  0.39820576  0.14686401  1
  C  C202  1  0.71800591  0.26336964  0.31739085  1
  C  C203  1  0.60807367  0.41527644  0.32896547  1
  H  H204  1  0.91320785  0.46111711  0.14909039  1
  C  C205  1  0.61035298  0.41840830  0.04699919  1
  H  H206  1  0.54805514  0.36927009  0.16257946  1
  H  H207  1  0.98501437  0.42889983  0.38824952  1
  C  C208  1  0.60292525  0.26127277  0.02694193  1
  C  C209  1  0.84021735  0.45350690  0.48761530  1
  C  C210  1  0.71145097  0.48844429  0.11237363  1
  O  O211  1  0.85741167  0.48738836  0.42075286  1
  Cu  Cu212  1  0.66725737  0.49350515  0.49302444  1
  H  H213  1  0.75016323  0.35964568  0.49929832  1
  Cu  Cu214  1  0.86974473  0.34852291  0.96279175  1
  H  H215  1  0.69327311  0.32033624  0.97881860  1
  C  C216  1  0.67767650  0.48002656  0.92069703  1
  C  C217  1  0.69480852  0.44333080  0.83668305  1
  C  C218  1  0.96418008  0.35786778  0.65890809  1
  N  N219  1  0.75823738  0.34897231  0.87851096  1
  C  C220  1  0.69139795  0.45990651  0.73523530  1
  C  C221  1  0.72643066  0.38968637  0.85642777  1
  O  O222  1  0.58598646  0.28797555  0.66234145  1
  O  O223  1  0.77308401  0.45626843  0.54354187  1
  C  C224  1  0.96062025  0.34355974  0.76308889  1
  H  H225  1  0.69669028  0.42451840  0.68670302  1
  N  N226  1  0.95341465  0.33461926  0.84590763  1
  C  C227  1  0.89489965  0.38736486  0.61296798  1
  O  O228  1  0.91614501  0.47935780  0.84764731  1
  Cu  Cu229  1  0.74163366  0.27463982  0.81689326  1
  O  O230  1  0.71567951  0.31235598  0.68777501  1
  H  H231  1  0.84115130  0.39621944  0.66431651  1
  Cu  Cu232  1  0.52890168  0.32134203  0.77855367  1
  O  O233  1  0.59358221  0.28970127  0.85641140  1
  C  C234  1  0.65877956  0.29790471  0.62849726  1
  C  C235  1  0.90235154  0.41241876  0.51833268  1
  C  C236  1  0.90751435  0.46681943  0.94019578  1
  C  C237  1  0.56683268  0.39603753  0.95827234  1
  O  O238  1  0.83871803  0.27235642  0.96560620  1
  N  N239  1  0.52965272  0.38365852  0.88890521  1
  C  C240  1  0.68452545  0.28280774  0.52418288  1
  C  C241  1  0.55725611  0.25941422  0.92687647  1
  O  O242  1  0.92128076  0.41919205  0.97320354  1
  C  C243  1  0.80322350  0.62751139  0.32247106  1
  C  C244  1  0.89055304  0.50002254  0.11956124  1
  H  H245  1  0.88194682  0.53784618  0.26856080  1
  O  O246  1  0.98533068  0.72841601  0.34472881  1
  N  N247  1  0.76182234  0.53462405  0.40598709  1
  H  H248  1  0.79655152  0.71127574  0.10995518  1
  C  C249  1  0.81820989  0.63912796  0.21433226  1
  C  C250  1  0.54598797  0.55644347  0.09230595  1
  C  C251  1  0.87243690  0.54204309  0.18792508  1
  H  H252  1  0.75693720  0.52196076  0.10110770  1
  C  C253  1  0.84716858  0.59362969  0.15299490  1
  C  C254  1  0.80725186  0.69502311  0.18828977  1
  H  H255  1  0.80180158  0.65434141  0.48027561  1
  C  C256  1  0.57647540  0.67811636  0.46021751  1
  C  C257  1  0.80542591  0.66705862  0.39822052  1
  C  C258  1  0.78569789  0.57304382  0.36628217  1
  H  H259  1  0.59305605  0.56900391  0.23592811  1
  C  C260  1  0.55543885  0.67144744  0.06534164  1
  C  C261  1  0.58107389  0.59064208  0.39767368  1
  C  C262  1  0.57717286  0.64923834  0.16300585  1
  C  C263  1  0.59723601  0.67214803  0.26532211  1
  N  N264  1  0.57546334  0.54547167  0.41837070  1
  C  C265  1  0.58511693  0.64568008  0.37257820  1
  C  C266  1  0.57062135  0.59119522  0.16901870  1
  C  C267  1  0.60780721  0.72442569  0.28920905  1
  C  C268  1  0.81269540  0.72220262  0.36919813  1
  C  C269  1  0.81734105  0.73444073  0.26662592  1
  C  C270  1  0.57195824  0.72464360  0.01975095  1
  H  H271  1  0.55039852  0.51326457  0.10314936  1
  C  C272  1  0.83538599  0.59946178  0.04254617  1
  H  H273  1  0.99285605  0.66530134  0.17546651  1
  C  C274  1  0.58507068  0.73443937  0.45293213  1
  C  C275  1  0.87868407  0.50599625  0.01586268  1
  C  C276  1  0.51375990  0.58018348  0.00250520  1
  H  H277  1  0.77572311  0.67775165  0.87072198  1
  C  C278  1  0.96610733  0.65990356  0.74471143  1
  C  C279  1  0.66864877  0.53592601  0.89034525  1
  C  C280  1  0.96024405  0.71423092  0.80154992  1
  C  C281  1  0.84791010  0.55385761  0.97787343  1
  Cu  Cu282  1  0.95909063  0.54871220  0.81279022  1
  C  C283  1  0.67022792  0.55009866  0.78711216  1
  H  H284  1  0.66128449  0.59215181  0.77008048  1
  N  N285  1  0.76847881  0.68244556  0.94945957  1
  H  H286  1  0.66247921  0.56716288  0.95279038  1
  H  H287  1  0.82721359  0.56369475  0.89938493  1
  H  H288  1  0.57041694  0.65951877  0.53298887  1
  O  O289  1  0.65619017  0.52767604  0.61099069  1
  C  C290  1  0.79846396  0.64537216  0.99450083  1
  C  C291  1  0.67365302  0.51305481  0.70337073  1
  O  O292  1  0.94669505  0.65628447  0.65853718  1
  C  C293  1  0.96911563  0.71455803  0.90633301  1
  H  H294  1  0.97955137  0.67576217  0.95234666  1
  O  O295  1  0.99266845  0.61877429  0.79719078  1
  H  H296  1  0.50140922  0.65655743  0.91876494  1
  C  C297  1  0.51784441  0.63613959  0.99185764  1
  C  C298  1  0.92786302  0.87236247  0.06732713  1
  H  H299  1  0.62712908  0.80703259  0.35936941  1
  N  N300  1  0.92277137  0.80355321  0.21016118  1
  O  O301  1  0.86474292  0.80996401  0.41271010  1
  N  N302  1  0.80504277  0.99493846  0.20702166  1
  C  C303  1  0.69466512  0.92214226  0.02332665  1
  C  C304  1  0.82511850  0.76741017  0.44836308  1
  C  C305  1  0.91915077  0.83079124  0.14290545  1
  H  H306  1  0.91631510  0.92377153  0.19964216  1
  C  C307  1  0.71774738  0.97567745  0.04583703  1
  H  H308  1  0.71400796  0.88894750  0.07401750  1
  C  C309  1  0.94243764  0.96753615  0.05668274  1
  C  C310  1  0.93625366  0.92196772  0.11908549  1
  H  H311  1  0.83282491  0.77839728  0.24555339  1
  C  C312  1  0.60664371  0.76388935  0.36262619  1
  H  H313  1  0.98605459  0.76992188  0.03337308  1
  O  O314  1  0.98527854  0.87886244  0.33602079  1
  Cu  Cu315  1  0.98338545  0.80472494  0.34907551  1
  C  C316  1  0.76642458  0.98646203  0.13563325  1
  H  H317  1  0.96522299  0.92756493  0.48110092  1
  O  O318  1  0.57557064  0.85133919  0.84600751  1
  H  H319  1  0.58775241  0.94430543  0.80200695  1
  Cu  Cu320  1  0.58095489  0.80219324  0.73846815  1
  O  O321  1  0.58487530  0.82109200  0.52765039  1
  N  N322  1  0.88958730  0.96848559  0.70621978  1
  C  C323  1  0.58053829  0.77190873  0.54172571  1
  C  C324  1  0.94075275  0.91464821  0.90017560  1
  H  H325  1  0.93928795  0.91363594  0.81549894  1
  C  C326  1  0.63088234  0.95233825  0.86919196  1
  O  O327  1  0.54589011  0.92234525  0.63183992  1
  C  C328  1  0.83003695  0.99042861  0.67126957  1
  C  C329  1  0.61948044  0.85521481  0.92702792  1
  C  C330  1  0.64952648  0.91057182  0.93560992  1
  C  C331  1  0.94553200  0.81406130  0.90270557  1
  H  H332  1  0.68087849  0.94322596  0.63990536  1
  C  C333  1  0.67814050  0.98801496  0.63579070  1
  C  C334  1  0.93884574  0.81034373  0.79070736  1
  C  C335  1  0.52583575  0.97574438  0.62933538  1
  C  C336  1  0.92582426  0.85481218  0.72107463  1
  N  N337  1  0.91606819  0.89175916  0.66883082  1
  C  C338  1  0.94007241  0.75940609  0.74329873  1
  C  C339  1  0.93109269  0.86544245  0.95564967  1
  C  C340  1  0.94745404  0.96288437  0.95168320  1
  C  C341  1  0.96656395  0.76595644  0.95415175  1
  O  O342  1  0.81326890  0.76091219  0.53646716  1
  O  O343  1  0.62915595  0.81985987  0.99427817  1
  H  H344  1  0.96206886  0.99828379  0.90647779  1
  H  H345  1  0.93102177  0.75468419  0.65770388  1
  O  O346  1  0.57435255  0.75318291  0.63095143  1
  N  N347  1  0.56656918  0.76143756  0.96708550  1
