# generated using pymatgen
data_Cu3H20C42(NO6)2
_symmetry_space_group_name_H-M   'P 1'
_cell_length_a   23.72585278
_cell_length_b   12.26428632
_cell_length_c   20.38055433
_cell_angle_alpha   90.00000000
_cell_angle_beta   90.00000000
_cell_angle_gamma   90.00000000
_symmetry_Int_Tables_number   1
_chemical_formula_structural   Cu3H20C42(NO6)2
_chemical_formula_sum   'Cu18 H120 C252 N12 O72'
_cell_volume   5930.34697680
_cell_formula_units_Z   6
loop_
 _symmetry_equiv_pos_site_id
 _symmetry_equiv_pos_as_xyz
  1  'x, y, z'
loop_
 _atom_site_type_symbol
 _atom_site_label
 _atom_site_symmetry_multiplicity
 _atom_site_fract_x
 _atom_site_fract_y
 _atom_site_fract_z
 _atom_site_occupancy
  Cu  Cu0  1  0.14584125  0.05328536  0.11838841  1
  H  H1  1  0.38432388  0.06152939  0.14290729  1
  H  H2  1  0.19561842  0.26001346  0.16462925  1
  H  H3  1  0.08792550  0.47106818  0.17824083  1
  C  C4  1  0.27047899  0.23075123  0.10824649  1
  C  C5  1  0.44320740  0.28674481  0.18308649  1
  C  C6  1  0.36043152  0.18654854  0.04727101  1
  C  C7  1  0.41077047  0.45343705  0.13055731  1
  C  C8  1  0.16988592  0.19308607  0.00535421  1
  C  C9  1  0.44628802  0.36489463  0.13174303  1
  H  H10  1  0.25917228  0.28907355  0.06799535  1
  C  C11  1  0.32104670  0.17206207  0.10381670  1
  O  O12  1  0.35236594  0.25452615  0.00721730  1
  C  C13  1  0.25004996  0.13838774  0.21104658  1
  C  C14  1  0.36883154  0.46131615  0.17956476  1
  C  C15  1  0.23487301  0.21378917  0.16127738  1
  O  O16  1  0.40576977  0.12574090  0.05401572  1
  C  C17  1  0.35850302  0.38180993  0.22476633  1
  N  N18  1  0.47522852  0.19305471  0.20015119  1
  H  H19  1  0.47934704  0.35536888  0.09298227  1
  C  C20  1  0.39614544  0.29322892  0.22931993  1
  C  C21  1  0.34290707  0.10541934  0.15264399  1
  C  C22  1  0.30693268  0.08806224  0.20581971  1
  O  O23  1  0.13948567  0.11665207  0.03219005  1
  C  C24  1  0.05626507  0.45389270  0.21613296  1
  O  O25  1  0.15596612  0.28853999  0.01030848  1
  C  C26  1  0.01561306  0.37905232  0.20257980  1
  H  H27  1  0.01489706  0.33295940  0.15402027  1
  H  H28  1  0.02289612  0.00417218  0.22367057  1
  O  O29  1  0.07211955  0.01394449  0.12099666  1
  C  C30  1  0.47509797  0.05743935  0.29774666  1
  C  C31  1  0.37175395  0.17114813  0.33065658  1
  C  C32  1  0.46710195  0.19942711  0.45902521  1
  C  C33  1  0.35830853  0.06794117  0.43209637  1
  C  C34  1  0.39444928  0.33215812  0.42210104  1
  C  C35  1  0.14790246  0.23149000  0.29029011  1
  C  C36  1  0.01159057  0.48021197  0.32680743  1
  C  C37  1  0.44303072  0.03793515  0.35382135  1
  H  H38  1  0.32994823  0.21145043  0.33825428  1
  C  C39  1  0.48132311  0.30806668  0.35722869  1
  C  C40  1  0.16577394  0.12049043  0.28502958  1
  C  C41  1  0.45141434  0.28011188  0.41589902  1
  C  C42  1  0.17879509  0.44945883  0.44215699  1
  C  C43  1  0.05975151  0.15990312  0.33286211  1
  H  H44  1  0.46245803  0.37067569  0.32235690  1
  O  O45  1  0.37405220  0.39084458  0.37922985  1
  O  O46  1  0.31482586  0.12827837  0.44732136  1
  H  H47  1  0.07323776  0.33184924  0.31010966  1
  C  C48  1  0.09185962  0.24784441  0.31281753  1
  C  C49  1  0.39320837  0.09541949  0.37194131  1
  H  H50  1  0.17489800  0.38955371  0.48198865  1
  C  C51  1  0.13403404  0.47020518  0.40048571  1
  N  N52  1  0.22308723  0.09296972  0.26574992  1
  H  H53  1  0.09867466  0.41592945  0.40780128  1
  C  C54  1  0.40329743  0.20322203  0.27565588  1
  Cu  Cu55  1  0.29438582  0.26409624  0.48347135  1
  H  H56  1  0.17750339  0.29502642  0.27658083  1
  H  H57  1  0.32343542  0.38482571  0.25924209  1
  O  O58  1  0.36805327  0.30942302  0.47401741  1
  C  C59  1  0.25985652  0.02694536  0.29984442  1
  H  H60  1  0.02468604  0.09400501  0.48372805  1
  H  H61  1  0.13108425  0.15275565  0.47269218  1
  C  C62  1  0.31225992  0.00893322  0.25977238  1
  C  C63  1  0.07619076  0.05019128  0.33159595  1
  C  C64  1  0.13125389  0.03339872  0.30790861  1
  C  C65  1  0.45493966  0.14172579  0.25616556  1
  C  C66  1  0.27295826  0.48568620  0.47780520  1
  O  O67  1  0.37948886  0.00127660  0.46786183  1
  H  H68  1  0.43947146  0.16520715  0.49752576  1
  O  O69  1  0.27107789  0.40399351  0.51526214  1
  C  C70  1  0.07528441  0.10030993  0.64869409  1
  C  C71  1  0.00385732  0.48938799  0.70668168  1
  C  C72  1  0.05510284  0.09749383  0.52448546  1
  O  O73  1  0.23493905  0.20904314  0.61224885  1
  C  C74  1  0.14408001  0.15532626  0.57425543  1
  H  H75  1  0.16363096  0.15605941  0.67654575  1
  C  C76  1  0.12944342  0.13946187  0.64016241  1
  C  C77  1  0.04603283  0.06991058  0.71106573  1
  C  C78  1  0.20625296  0.19154329  0.56672295  1
  C  C79  1  0.11032308  0.14164473  0.51899636  1
  C  C80  1  0.03870991  0.08224050  0.59127827  1
  C  C81  1  0.41569498  0.46422753  0.64735689  1
  O  O82  1  0.22400939  0.20296088  0.50665488  1
  O  O83  1  0.46424639  0.43921293  0.62598211  1
  O  O84  1  0.37620104  0.47275602  0.60517052  1
  Cu  Cu85  1  0.49428563  0.44544446  0.54653967  1
  C  C86  1  0.40539881  0.49404782  0.71510187  1
  H  H87  1  0.48992591  0.44958538  0.74719091  1
  H  H88  1  0.37645707  0.27517648  0.90163929  1
  C  C89  1  0.46107970  0.27058012  0.85945348  1
  C  C90  1  0.40642154  0.23251390  0.86853900  1
  C  C91  1  0.06053678  0.04657404  0.77546468  1
  C  C92  1  0.39016842  0.13588110  0.83396223  1
  C  C93  1  0.23771295  0.04583255  0.97360004  1
  C  C94  1  0.21836822  0.15336151  0.96472402  1
  N  N95  1  0.34277096  0.06852531  0.83707858  1
  C  C96  1  0.49608604  0.21252649  0.81684650  1
  H  H97  1  0.29215520  0.25167577  0.83380477  1
  C  C98  1  0.27453455  0.19634661  0.87136663  1
  C  C99  1  0.23674680  0.23329323  0.91827122  1
  H  H100  1  0.10162216  0.06650502  0.79414147  1
  C  C101  1  0.29728151  0.08960154  0.88099438  1
  H  H102  1  0.21950906  0.31791529  0.91577368  1
  C  C103  1  0.28063091  0.01319011  0.93063477  1
  H  H104  1  0.47864940  0.33754915  0.88753395  1
  C  C105  1  0.01717164  0.00179759  0.81591238  1
  C  C106  1  0.42703930  0.08860108  0.78275096  1
  C  C107  1  0.48273092  0.12585994  0.77411889  1
  Cu  Cu108  1  0.43791917  0.02600933  0.99940655  1
  C  C109  1  0.45019203  0.48575508  0.76074950  1
  O  O110  1  0.07378686  0.00058077  0.91063692  1
  H  H111  1  0.12088069  0.81274495  0.12388158  1
  O  O112  1  0.40303259  0.89513545  0.03847831  1
  O  O113  1  0.28506156  0.55686068  0.20983634  1
  C  C114  1  0.10186431  0.69534477  0.19895715  1
  C  C115  1  0.32713532  0.55506956  0.17712367  1
  O  O116  1  0.14425258  0.70111013  0.01687389  1
  Cu  Cu117  1  0.30605673  0.76122560  0.13940859  1
  C  C118  1  0.13515371  0.77244762  0.16882507  1
  O  O119  1  0.19191084  0.92771495  0.10480102  1
  C  C120  1  0.46487371  0.78257768  0.10669060  1
  H  H121  1  0.42502238  0.71877913  0.19822153  1
  C  C122  1  0.21796567  0.88180162  0.15140024  1
  O  O123  1  0.26991504  0.88354887  0.15742203  1
  O  O124  1  0.37684728  0.84868115  0.13485610  1
  O  O125  1  0.33987348  0.62731455  0.13363223  1
  C  C126  1  0.18831997  0.80129840  0.19417514  1
  H  H127  1  0.41346796  0.64052281  0.03921556  1
  C  C128  1  0.41388083  0.84399642  0.09009475  1
  H  H129  1  0.22081465  0.58750161  0.03480606  1
  C  C130  1  0.04624966  0.93103477  0.10399133  1
  H  H131  1  0.06258912  0.66712322  0.18006563  1
  O  O132  1  0.05174225  0.88720154  0.04782613  1
  H  H133  1  0.32756588  0.53947496  0.01708891  1
  C  C134  1  0.46352427  0.72372809  0.16626897  1
  C  C135  1  0.01124359  0.87623542  0.15363531  1
  C  C136  1  0.00429438  0.92258647  0.21692038  1
  H  H137  1  0.41828760  0.51947792  0.09618952  1
  C  C138  1  0.21300436  0.75778427  0.24927907  1
  C  C139  1  0.49859850  0.57028656  0.02104658  1
  H  H140  1  0.38954094  0.91501098  0.24594264  1
  H  H141  1  0.22306213  0.99097011  0.01463732  1
  C  C142  1  0.44314825  0.59583620  0.00459152  1
  N  N143  1  0.09823241  0.57484694  0.29993088  1
  H  H144  1  0.45652125  0.97835867  0.38766744  1
  C  C145  1  0.18848367  0.61609611  0.34304359  1
  C  C146  1  0.17780849  0.69216049  0.28739759  1
  O  O147  1  0.42051410  0.76466440  0.31421864  1
  H  H148  1  0.28056812  0.81837623  0.40992545  1
  C  C149  1  0.33787863  0.86694063  0.33116674  1
  H  H150  1  0.21475661  0.96944496  0.38631099  1
  C  C151  1  0.02803898  0.78471825  0.37383797  1
  C  C152  1  0.04678686  0.78161453  0.43935972  1
  H  H153  1  0.08892838  0.81211668  0.45441770  1
  C  C154  1  0.28896526  0.87594958  0.36903310  1
  C  C155  1  0.35106658  0.92874585  0.27467945  1
  H  H156  1  0.27096917  0.64435017  0.38288743  1
  C  C157  1  0.37827312  0.77528977  0.34506483  1
  O  O158  1  0.36917123  0.69939044  0.39414327  1
  C  C159  1  0.25214689  0.96330138  0.35770153  1
  H  H160  1  0.05538912  0.81689655  0.33407881  1
  Cu  Cu161  1  0.36990343  0.54580510  0.38184437  1
  C  C162  1  0.23155791  0.60119343  0.38749050  1
  H  H163  1  0.45055442  0.61171358  0.31268469  1
  C  C164  1  0.22547432  0.51842393  0.43532383  1
  O  O165  1  0.44309391  0.55526718  0.42252638  1
  C  C166  1  0.13618255  0.55020552  0.35126255  1
  C  C167  1  0.49335862  0.58952275  0.30513997  1
  Cu  Cu168  1  0.41633830  0.68110800  0.46744931  1
  O  O169  1  0.48452950  0.76790153  0.46118210  1
  H  H170  1  0.14486183  0.94722064  0.30203382  1
  H  H171  1  0.25539947  0.77783707  0.26344195  1
  C  C172  1  0.12348447  0.65528852  0.26019790  1
  H  H173  1  0.00665643  0.52022197  0.37682042  1
  H  H174  1  0.04903299  0.98139931  0.34667160  1
  C  C175  1  0.49272936  0.51536849  0.41312917  1
  O  O176  1  0.31295141  0.55427272  0.48010268  1
  C  C177  1  0.05657660  0.50271628  0.28041415  1
  C  C178  1  0.01227970  0.74047357  0.49182367  1
  Cu  Cu179  1  0.35286153  0.59914817  0.55708384  1
  C  C180  1  0.03211489  0.73944742  0.56177593  1
  C  C181  1  0.37848805  0.75803425  0.63666413  1
  O  O182  1  0.07841748  0.77817814  0.57090645  1
  O  O183  1  0.34451575  0.68206025  0.63008406  1
  H  H184  1  0.29377368  0.75094104  0.72836443  1
  O  O185  1  0.41775755  0.77495577  0.59591037  1
  H  H186  1  0.31624834  0.52320320  0.68883192  1
  C  C187  1  0.32370670  0.81657716  0.73355335  1
  Cu  Cu188  1  0.48840636  0.82349116  0.62256375  1
  C  C189  1  0.37066383  0.83651786  0.69286953  1
  H  H190  1  0.02510477  0.53901270  0.67006937  1
  H  H191  1  0.00777966  0.94156338  0.51390123  1
  C  C192  1  0.34885541  0.52349408  0.73076539  1
  H  H193  1  0.43730167  0.94690069  0.66244114  1
  C  C194  1  0.40841018  0.92492314  0.70031930  1
  O  O195  1  0.00059053  0.70083713  0.60789230  1
  O  O196  1  0.02640126  0.69358569  0.74643942  1
  O  O197  1  0.15018565  0.84538580  0.95240095  1
  H  H198  1  0.33566451  0.78339436  0.86606216  1
  C  C199  1  0.42904878  0.57604510  0.93734300  1
  N  N200  1  0.37764685  0.59266360  0.90595827  1
  H  H201  1  0.23331695  0.84755423  0.89254604  1
  H  H202  1  0.30504647  0.93660625  0.93398562  1
  Cu  Cu203  1  0.10048379  0.95116721  0.98581251  1
  H  H204  1  0.26576512  0.88737332  0.80621324  1
  C  C205  1  0.22788569  0.71384422  0.96165583  1
  H  H206  1  0.29172798  0.58390883  0.80510703  1
  C  C207  1  0.33444652  0.55614801  0.79161027  1
  O  O208  1  0.43131864  0.83919923  0.88433098  1
  C  C209  1  0.02555618  0.98084105  0.88445807  1
  H  H210  1  0.48849356  0.73088795  0.80571813  1
  C  C211  1  0.33063265  0.64799651  0.93115449  1
  C  C212  1  0.17058479  0.75440390  0.97822167  1
  C  C213  1  0.30768588  0.74137788  0.89861366  1
  C  C214  1  0.25547333  0.77875048  0.91417362  1
  C  C215  1  0.34401646  0.98353927  0.79171228  1
  C  C216  1  0.38018289  0.56167486  0.83947037  1
  C  C217  1  0.46846455  0.52964696  0.88891716  1
  C  C218  1  0.43763960  0.52382852  0.82430009  1
  O  O219  1  0.48206328  0.94302875  0.95068616  1
  C  C220  1  0.30445207  0.59707478  0.98652261  1
  C  C221  1  0.47548960  0.85834026  0.91006333  1
  C  C222  1  0.30648643  0.89568003  0.77842072  1
  C  C223  1  0.00451602  0.51572390  0.77466604  1
  C  C224  1  0.02052708  0.62487879  0.79149031  1
  O  O225  1  0.01446939  0.65295355  0.85248546  1
  C  C226  1  0.24828958  0.62730540  0.99861040  1
  C  C227  1  0.39659729  0.99671381  0.75335082  1
  C  C228  1  0.57030115  0.05371007  0.08866336  1
  O  O229  1  0.92408744  0.22770272  0.17762567  1
  C  C230  1  0.66467516  0.17461588  0.22521994  1
  H  H231  1  0.76678922  0.42722992  0.12642356  1
  H  H232  1  0.65211409  0.15360053  0.17520740  1
  O  O233  1  0.89655353  0.19534463  0.04536202  1
  C  C234  1  0.97127799  0.35722844  0.24673598  1
  C  C235  1  0.56088142  0.26273005  0.14455872  1
  C  C236  1  0.71652357  0.22850887  0.23504842  1
  H  H237  1  0.55674341  0.34526127  0.16277075  1
  C  C238  1  0.59877146  0.24680240  0.09471574  1
  Cu  Cu239  1  0.85755081  0.24614655  0.12162001  1
  C  C240  1  0.75335746  0.24905490  0.17748185  1
  O  O241  1  0.73527380  0.20622900  0.12550410  1
  C  C242  1  0.60136814  0.14465421  0.06607970  1
  C  C243  1  0.53564103  0.06806547  0.14152582  1
  O  O244  1  0.80137705  0.28856759  0.18308244  1
  C  C245  1  0.52703539  0.17540375  0.16793653  1
  Cu  Cu246  1  0.77841689  0.13312296  0.06687059  1
  H  H247  1  0.62498740  0.31401286  0.07238168  1
  H  H248  1  0.66940430  0.42877190  0.16800289  1
  O  O249  1  0.83349253  0.08086535  0.00825302  1
  C  C250  1  0.92727540  0.28065574  0.23062003  1
  C  C251  1  0.63810090  0.12714813  0.00904539  1
  O  O252  1  0.60245283  0.48425393  0.05285589  1
  C  C253  1  0.66767277  0.03804413  0.47709915  1
  H  H254  1  0.60267772  0.43854529  0.38349343  1
  C  C255  1  0.55691967  0.18604340  0.39146404  1
  N  N256  1  0.61477446  0.16160919  0.39831179  1
  H  H257  1  0.71993082  0.23096934  0.40559736  1
  H  H258  1  0.65278863  0.47568243  0.28640023  1
  H  H259  1  0.59023079  0.11802779  0.26858014  1
  C  C260  1  0.73788995  0.25129405  0.29848992  1
  O  O261  1  0.79250853  0.30006735  0.45102524  1
  C  C262  1  0.96930236  0.40900372  0.30990832  1
  O  O263  1  0.98640360  0.23370079  0.40295117  1
  C  C264  1  0.65196855  0.17161497  0.34394814  1
  H  H265  1  0.78061296  0.28936388  0.30269824  1
  C  C266  1  0.53189334  0.25526271  0.34103000  1
  C  C267  1  0.52428956  0.16145997  0.44992633  1
  H  H268  1  0.70750813  0.03684291  0.44871078  1
  Cu  Cu269  1  0.88033539  0.13122135  0.31698489  1
  C  C270  1  0.63092608  0.15695200  0.27834688  1
  C  C271  1  0.70794284  0.21655741  0.35273708  1
  H  H272  1  0.93159156  0.39501546  0.34202769  1
  H  H273  1  0.55756740  0.27551545  0.29739963  1
  C  C274  1  0.62104658  0.09765990  0.45279989  1
  C  C275  1  0.99741108  0.17431222  0.35838093  1
  O  O276  1  0.88895345  0.26395997  0.27439905  1
  O  O277  1  0.95866454  0.11313237  0.33235320  1
  O  O278  1  0.51689070  0.45996494  0.45780345  1
  H  H279  1  0.51529027  0.01711375  0.28858387  1
  O  O280  1  0.70797702  0.49226720  0.36395968  1
  C  C281  1  0.83727901  0.02110422  0.41716377  1
  C  C282  1  0.56428738  0.09680439  0.48887983  1
  O  O283  1  0.78658912  0.02540898  0.42254457  1
  O  O284  1  0.86248133  0.00498427  0.36083089  1
  C  C285  1  0.87455080  0.00960559  0.47486354  1
  C  C286  1  0.57883773  0.48516993  0.34503386  1
  Cu  Cu287  1  0.68998258  0.46388303  0.51724018  1
  C  C288  1  0.99000043  0.03677223  0.68750873  1
  C  C289  1  0.77038246  0.30413747  0.50336955  1
  H  H290  1  0.80490362  0.07438802  0.53624245  1
  H  H291  1  0.73271866  0.26313986  0.62758218  1
  C  C292  1  0.95493439  0.32113931  0.73653976  1
  C  C293  1  0.88525282  0.03783016  0.59245002  1
  C  C294  1  0.89938412  0.25977093  0.61356094  1
  C  C295  1  0.86334345  0.27775878  0.56174363  1
  O  O296  1  0.63040569  0.41374180  0.57091071  1
  C  C297  1  0.87496034  0.24875325  0.67673009  1
  C  C298  1  0.67291474  0.47096133  0.68952861  1
  C  C299  1  0.81526190  0.24622205  0.68231872  1
  H  H300  1  0.69624848  0.41690275  0.65929851  1
  C  C301  1  0.78023460  0.25427417  0.62759944  1
  C  C302  1  0.59937106  0.47239949  0.60535649  1
  C  C303  1  0.80386864  0.27704042  0.56623618  1
  C  C304  1  0.55732883  0.03634647  0.54589641  1
  H  H305  1  0.94575708  0.24961082  0.60460035  1
  N  N306  1  0.91142531  0.24532821  0.73209206  1
  H  H307  1  0.87077378  0.07773979  0.64085209  1
  H  H308  1  0.51738463  0.04341437  0.57637918  1
  C  C309  1  0.97482224  0.39669472  0.68838797  1
  H  H310  1  0.96708792  0.39105344  0.63542710  1
  H  H311  1  0.79386716  0.24098736  0.72712685  1
  H  H312  1  0.87964511  0.28215279  0.51197331  1
  O  O313  1  0.71728465  0.32676029  0.51263962  1
  H  H314  1  0.51383691  0.09433067  0.73649854  1
  N  N315  1  0.98879433  0.04343642  0.61870617  1
  C  C316  1  0.85005291  0.04211978  0.53668019  1
  C  C317  1  0.94328665  0.01286625  0.57799978  1
  C  C318  1  0.55645279  0.24225325  0.81373639  1
  H  H319  1  0.94528196  0.29283338  0.95136155  1
  O  O320  1  0.62631943  0.41903705  0.95621558  1
  H  H321  1  0.83412284  0.09094580  0.77678828  1
  C  C322  1  0.85175929  0.10701488  0.88206609  1
  C  C323  1  0.93022769  0.26748653  0.84470153  1
  O  O324  1  0.65911365  0.21464304  0.98477177  1
  H  H325  1  0.55827406  0.49177785  0.87026952  1
  H  H326  1  0.98840440  0.47540605  0.87653114  1
  O  O327  1  0.58768282  0.18331149  0.78519090  1
  Cu  Cu328  1  0.61931742  0.28442686  0.92459136  1
  C  C329  1  0.85609492  0.13230247  0.81619004  1
  O  O330  1  0.57508033  0.32323042  0.85180677  1
  C  C331  1  0.89515047  0.21014824  0.79459780  1
  C  C332  1  0.92407999  0.24909149  0.91185730  1
  C  C333  1  0.88417909  0.16799661  0.92784120  1
  H  H334  1  0.82202316  0.04370222  0.89922032  1
  C  C335  1  0.96255491  0.35012970  0.80623995  1
  C  C336  1  0.59072035  0.47518979  0.99667616  1
  C  C337  1  0.87278923  0.14868039  0.99706133  1
  H  H338  1  0.72943301  0.47468766  0.77084306  1
  C  C339  1  0.98645957  0.44868355  0.82547753  1
  O  O340  1  0.64722931  0.04083858  0.98173611  1
  H  H341  1  0.50423618  0.81639199  0.02011517  1
  Cu  Cu342  1  0.87516848  0.82319587  0.06527678  1
  C  C343  1  0.77292329  0.60785654  0.12743131  1
  C  C344  1  0.83488846  0.60610391  0.11508834  1
  C  C345  1  0.74460279  0.70870517  0.13003655  1
  O  O346  1  0.85464532  0.92470929  0.12768791  1
  O  O347  1  0.85737679  0.70767198  0.12014623  1
  C  C348  1  0.80608276  0.94725841  0.14906243  1
  H  H349  1  0.87573530  0.57521727  0.22125419  1
  H  H350  1  0.99011824  0.74053937  0.08750847  1
  O  O351  1  0.77238277  0.99817898  0.11164314  1
  H  H352  1  0.60180722  0.72845942  0.05033407  1
  C  C353  1  0.95735883  0.71871928  0.18705869  1
  C  C354  1  0.51237130  0.67638698  0.18687872  1
  C  C355  1  0.68881510  0.50622083  0.15345260  1
  C  C356  1  0.79050749  0.91709008  0.21593268  1
  C  C357  1  0.51308136  0.77772778  0.06506979  1
  C  C358  1  0.56336183  0.67640634  0.14588645  1
  C  C359  1  0.65965454  0.60615199  0.16040744  1
  N  N360  1  0.60209337  0.61381304  0.18112977  1
  C  C361  1  0.56510337  0.73022924  0.08323380  1
  H  H362  1  0.76890178  0.78572614  0.12327397  1
  O  O363  1  0.86314225  0.52949823  0.10222883  1
  C  C364  1  0.68837923  0.70652161  0.14740723  1
  H  H365  1  0.94550772  0.63317904  0.18378303  1
  H  H366  1  0.79759158  0.64489934  0.01443889  1
  H  H367  1  0.57397652  0.97442665  0.06559404  1
  H  H368  1  0.66802592  0.78725849  0.15766755  1
  H  H369  1  0.51132046  0.59050804  0.06984882  1
  H  H370  1  0.70992042  0.99542034  0.20917088  1
  C  C371  1  0.73698658  0.94802327  0.23887147  1
  H  H372  1  0.86631592  0.81923257  0.22462525  1
  C  C373  1  0.98380386  0.77812090  0.13674090  1
  C  C374  1  0.58053019  0.56592248  0.23732120  1
  H  H375  1  0.51227591  0.99769625  0.15800300  1
  C  C376  1  0.74381444  0.50582987  0.13275642  1
  C  C377  1  0.52352593  0.60793059  0.24604404  1
  C  C378  1  0.95338136  0.76847250  0.24999923  1
  H  H379  1  0.54541918  0.81356081  0.37230504  1
  C  C380  1  0.74765043  0.51529609  0.39613177  1
  H  H381  1  0.85746652  0.83074381  0.41775776  1
  H  H382  1  0.83278225  0.57327550  0.46694806  1
  N  N383  1  0.94599048  0.70543987  0.30817937  1
  C  C384  1  0.97324405  0.73357127  0.36613346  1
  C  C385  1  0.94174539  0.68142982  0.41936172  1
  C  C386  1  0.58611063  0.79961327  0.39824722  1
  H  H387  1  0.83955943  0.75581413  0.33753756  1
  C  C388  1  0.84418116  0.57406066  0.41492380  1
  H  H389  1  0.68766630  0.95593750  0.33150497  1
  C  C390  1  0.68564381  0.79397711  0.41199049  1
  C  C391  1  0.60831153  0.50070941  0.28782698  1
  C  C392  1  0.83509366  0.79576737  0.46001919  1
  C  C393  1  0.68281044  0.75135625  0.48075949  1
  C  C394  1  0.97136785  0.87551964  0.26603418  1
  C  C395  1  0.81364181  0.81563211  0.31200393  1
  H  H396  1  0.77905014  0.51228004  0.27172052  1
  C  C397  1  0.72384254  0.92224028  0.30477938  1
  N  N398  1  0.74203120  0.80656954  0.39886955  1
  C  C399  1  0.90300068  0.63089142  0.31892501  1
  H  H400  1  0.64100475  0.84307083  0.32016200  1
  C  C401  1  0.76029396  0.84629252  0.33753215  1
  C  C402  1  0.77625712  0.77520113  0.45162813  1
  C  C403  1  0.63840151  0.81671236  0.36930503  1
  C  C404  1  0.89329535  0.62183634  0.39181643  1
  C  C405  1  0.81309355  0.54169323  0.30060381  1
  C  C406  1  0.93128413  0.97732227  0.46341493  1
  C  C407  1  0.52237044  0.52546153  0.35203179  1
  C  C408  1  0.80322909  0.54038864  0.36747149  1
  C  C409  1  0.86587663  0.57913084  0.27528989  1
  C  C410  1  0.58294205  0.76646579  0.46597298  1
  C  C411  1  0.96071671  0.69013607  0.48472470  1
  O  O412  1  0.74335837  0.51615595  0.46290920  1
  H  H413  1  0.96490337  0.90919611  0.31383550  1
  H  H414  1  0.94711129  0.95474235  0.41520309  1
  C  C415  1  0.52914066  0.76160176  0.49688972  1
  C  C416  1  0.82934798  0.84930735  0.25130582  1
  C  C417  1  0.66110097  0.98218104  0.53522616  1
  C  C418  1  0.76683367  0.73918496  0.57055897  1
  C  C419  1  0.85810392  0.79327188  0.52326638  1
  H  H420  1  0.74669643  0.71700407  0.61584726  1
  C  C421  1  0.62957974  0.73936782  0.50693944  1
  H  H422  1  0.90401980  0.98150291  0.71341144  1
  O  O423  1  0.52405029  0.73722646  0.55626727  1
  C  C424  1  0.60183908  0.91850887  0.62693273  1
  Cu  Cu425  1  0.96745378  0.74912788  0.69110446  1
  C  C426  1  0.58174892  0.57275586  0.70673367  1
  H  H427  1  0.54296583  0.59813833  0.68429574  1
  O  O428  1  0.90533931  0.79491756  0.64446771  1
  C  C429  1  0.85553229  0.75637584  0.64074803  1
  C  C430  1  0.82484838  0.75777333  0.57418335  1
  H  H431  1  0.94143441  0.64790046  0.52692822  1
  O  O432  1  0.64298729  0.87646196  0.64876433  1
  H  H433  1  0.62499551  0.71335041  0.55768126  1
  C  C434  1  0.74004310  0.74824864  0.50920296  1
  O  O435  1  0.82773128  0.72998390  0.68670923  1
  H  H436  1  0.90145130  0.82663512  0.53363266  1
  H  H437  1  0.69488815  0.93374007  0.55639371  1
  O  O438  1  0.55241132  0.90965625  0.65487107  1
  C  C439  1  0.96614119  0.97803408  0.51581810  1
  O  O440  1  0.55566073  0.51430107  0.58112407  1
  C  C441  1  0.94730587  0.99192587  0.72849850  1
  C  C442  1  0.61813889  0.50504555  0.67175802  1
  C  C443  1  0.60687360  0.98336309  0.56512692  1
  H  H444  1  0.66103513  0.76815149  0.95810615  1
  C  C445  1  0.59639002  0.60705643  0.76967898  1
  H  H446  1  0.57232247  0.88844521  0.97422526  1
  C  C447  1  0.57667413  0.68276830  0.82338611  1
  C  C448  1  0.73338558  0.63293314  0.94123139  1
  C  C449  1  0.61959115  0.68126109  0.87525316  1
  C  C450  1  0.82951450  0.68735043  0.91718363  1
  N  N451  1  0.66506744  0.62064959  0.84847630  1
  C  C452  1  0.81527702  0.68643477  0.84733107  1
  C  C453  1  0.96177691  0.97727039  0.79362995  1
  C  C454  1  0.62318576  0.75668984  0.92824098  1
  C  C455  1  0.52666350  0.73449595  0.83563708  1
  H  H456  1  0.75372594  0.68133608  0.77505421  1
  H  H457  1  0.70411234  0.60036487  0.97847444  1
  C  C458  1  0.65232512  0.56702951  0.78983892  1
  C  C459  1  0.88368840  0.72828947  0.93599891  1
  H  H460  1  0.84723979  0.71374065  0.81047546  1
  C  C461  1  0.71881012  0.63171228  0.87341165  1
  H  H462  1  0.92641422  0.96592662  0.82970519  1
  O  O463  1  0.91265948  0.77149481  0.89032905  1
  C  C464  1  0.53004768  0.80196420  0.89269713  1
  C  C465  1  0.76215638  0.66019385  0.82656480  1
  C  C466  1  0.57521155  0.82133708  0.93649448  1
  C  C467  1  0.78784045  0.65350253  0.96133491  1
  O  O468  1  0.98632572  0.93208854  0.91506842  1
  O  O469  1  0.89974202  0.73459545  0.99635387  1
  C  C470  1  0.68939711  0.50110515  0.75143082  1
  Cu  Cu471  1  0.99095719  0.78889348  0.88507660  1
  C  C472  1  0.52471397  0.51231353  0.90542380  1
  C  C473  1  0.53485758  0.52634754  0.97285377  1
