# generated using pymatgen
data_ZnH2(C3O2)2
_symmetry_space_group_name_H-M   'P 1'
_cell_length_a   24.44516721
_cell_length_b   23.58524863
_cell_length_c   16.97336041
_cell_angle_alpha   90.00000000
_cell_angle_beta   90.00000000
_cell_angle_gamma   90.00000000
_symmetry_Int_Tables_number   1
_chemical_formula_structural   ZnH2(C3O2)2
_chemical_formula_sum   'Zn48 H96 C288 O192'
_cell_volume   9785.91195881
_cell_formula_units_Z   48
loop_
 _symmetry_equiv_pos_site_id
 _symmetry_equiv_pos_as_xyz
  1  'x, y, z'
loop_
 _atom_site_type_symbol
 _atom_site_label
 _atom_site_symmetry_multiplicity
 _atom_site_fract_x
 _atom_site_fract_y
 _atom_site_fract_z
 _atom_site_occupancy
  C  C0  1  0.05208217  0.35768729  0.16593878  1
  C  C1  1  0.36185188  0.40467151  0.24872461  1
  H  H2  1  0.39638015  0.42489661  0.12889052  1
  H  H3  1  0.11012281  0.26835156  0.13473306  1
  C  C4  1  0.14487649  0.29460244  0.01848468  1
  C  C5  1  0.08740603  0.35168747  0.09375228  1
  Zn  Zn6  1  0.17527969  0.15643519  0.15347079  1
  C  C7  1  0.27906638  0.06053628  0.12524001  1
  H  H8  1  0.21785212  0.10896211  0.05479207  1
  O  O9  1  0.02983934  0.31615691  0.20176164  1
  O  O10  1  0.33023240  0.10500717  0.22700931  1
  O  O11  1  0.04793600  0.19136599  0.17970619  1
  C  C12  1  0.11585740  0.30107144  0.08914701  1
  O  O13  1  0.26198230  0.15155666  0.17382281  1
  O  O14  1  0.12883178  0.21135653  0.22641796  1
  C  C15  1  0.26652365  0.38010565  0.24820816  1
  H  H16  1  0.07226457  0.43827888  0.04709027  1
  C  C17  1  0.29200897  0.10836816  0.17919295  1
  O  O18  1  0.04446851  0.40791566  0.19216355  1
  H  H19  1  0.22605416  0.38539222  0.13507556  1
  C  C20  1  0.15322648  0.01692054  0.19203994  1
  O  O21  1  0.15916453  0.06901732  0.19946728  1
  C  C22  1  0.26516156  0.38922598  0.16716132  1
  C  C23  1  0.35996695  0.40958639  0.16572769  1
  C  C24  1  0.09430437  0.39906440  0.04341878  1
  C  C25  1  0.31176235  0.40315603  0.12404607  1
  C  C26  1  0.24124179  0.06805182  0.06432444  1
  C  C27  1  0.30433127  0.00815490  0.14258350  1
  O  O28  1  0.14820810  0.19616871  0.04194980  1
  C  C29  1  0.31124681  0.41255832  0.03787022  1
  C  C30  1  0.22762854  0.02023442  0.02224262  1
  C  C31  1  0.07811544  0.20564722  0.23548361  1
  H  H32  1  0.32943193  0.00344518  0.19427063  1
  O  O33  1  0.26173148  0.41644977  0.01230416  1
  H  H34  1  0.12830033  0.27246586  0.34426874  1
  Zn  Zn35  1  0.17142508  0.40672477  0.44387105  1
  O  O36  1  0.26788687  0.21957100  0.45189131  1
  H  H37  1  0.38264969  0.49748753  0.43732378  1
  Zn  Zn38  1  0.12371072  0.43822825  0.26167286  1
  C  C39  1  0.06043594  0.28367732  0.41866182  1
  C  C40  1  0.08697514  0.25738150  0.35862298  1
  C  C41  1  0.05229984  0.22357524  0.31097898  1
  C  C42  1  0.08082241  0.32764441  0.47870975  1
  C  C43  1  0.31723851  0.22350650  0.44502435  1
  O  O44  1  0.34171128  0.20322645  0.38613485  1
  O  O45  1  0.30752855  0.04688333  0.39589220  1
  C  C46  1  0.00200350  0.45667234  0.35241728  1
  O  O47  1  0.41146320  0.40888451  0.36666955  1
  C  C48  1  0.26864271  0.48953826  0.43060357  1
  H  H49  1  0.02717828  0.41904338  0.34293739  1
  C  C50  1  0.22999375  0.00568267  0.28955995  1
  H  H51  1  0.23533556  0.05242633  0.29373846  1
  C  C52  1  0.21716164  0.36351145  0.29260866  1
  O  O53  1  0.47902521  0.47603073  0.49422458  1
  O  O54  1  0.10861850  0.45789424  0.38348420  1
  O  O55  1  0.13090272  0.33663607  0.48808078  1
  Zn  Zn56  1  0.34779923  0.11519860  0.35713078  1
  H  H57  1  0.32559069  0.37364495  0.35048490  1
  H  H58  1  0.42173221  0.27891444  0.44223844  1
  O  O59  1  0.21545707  0.35033834  0.36321363  1
  O  O60  1  0.42177170  0.09742452  0.45207860  1
  O  O61  1  0.21857146  0.48522852  0.44619412  1
  C  C62  1  0.31686823  0.38369780  0.28916515  1
  Zn  Zn63  1  0.49070329  0.40839932  0.41524003  1
  C  C64  1  0.41185838  0.42429217  0.29483256  1
  C  C65  1  0.45534884  0.13316513  0.46452389  1
  O  O66  1  0.48743540  0.17061619  0.47254971  1
  O  O67  1  0.45008534  0.45336871  0.26662607  1
  C  C68  1  0.00489521  0.27435025  0.44169418  1
  O  O69  1  0.28568567  0.49222693  0.36148203  1
  C  C70  1  0.36314257  0.48692353  0.49587586  1
  O  O71  1  0.17055684  0.36346496  0.25201734  1
  C  C72  1  0.00483967  0.00779878  0.70202129  1
  H  H73  1  0.23766419  0.47457588  0.57783242  1
  C  C74  1  0.34767660  0.03477013  0.65745353  1
  O  O75  1  0.32017450  0.07783721  0.64041041  1
  C  C76  1  0.39320344  0.47601799  0.56400208  1
  C  C77  1  0.36690772  0.25643472  0.65215446  1
  Zn  Zn78  1  0.04506872  0.39504778  0.62945332  1
  O  O79  1  0.21497935  0.14546841  0.66840129  1
  C  C80  1  0.17172293  0.03781388  0.63147624  1
  H  H81  1  0.44175014  0.29726607  0.69353920  1
  C  C82  1  0.06471750  0.02127387  0.68429321  1
  C  C83  1  0.31353941  0.46756604  0.63894950  1
  O  O84  1  0.47995211  0.18952231  0.70465525  1
  C  C85  1  0.43268327  0.08985117  0.67800454  1
  C  C86  1  0.35110313  0.25292726  0.51334716  1
  H  H87  1  0.39463893  0.46538371  0.69279185  1
  C  C88  1  0.14424657  0.07720368  0.67680889  1
  H  H89  1  0.40623665  0.12622730  0.67220301  1
  C  C90  1  0.49038910  0.31401092  0.54925789  1
  C  C91  1  0.28151887  0.47652571  0.57303454  1
  C  C92  1  0.40660275  0.03687214  0.67659446  1
  C  C93  1  0.33142973  0.24365768  0.58963178  1
  C  C94  1  0.16639851  0.13500430  0.69334105  1
  C  C95  1  0.08951041  0.07156192  0.70371849  1
  O  O96  1  0.48084477  0.47499436  0.62344975  1
  C  C97  1  0.37002238  0.46982116  0.63913128  1
  C  C98  1  0.41699624  0.28322590  0.64506680  1
  H  H99  1  0.29221289  0.22409229  0.59992992  1
  C  C100  1  0.43454301  0.29090026  0.56581844  1
  C  C101  1  0.34826478  0.24203031  0.73480547  1
  C  C102  1  0.28468663  0.46279349  0.71906613  1
  H  H103  1  0.21368237  0.04475558  0.61088860  1
  O  O104  1  0.07925507  0.47654560  0.59510098  1
  H  H105  1  0.06745994  0.10662566  0.72918052  1
  O  O106  1  0.10395379  0.37638564  0.71673860  1
  C  C107  1  0.45532429  0.47292801  0.56062980  1
  C  C108  1  0.30739040  0.48521794  0.50006813  1
  C  C109  1  0.48926742  0.09172962  0.68938216  1
  C  C110  1  0.40236424  0.27605290  0.50218611  1
  Zn  Zn111  1  0.28536208  0.13435205  0.73378769  1
  O  O112  1  0.04737101  0.35031204  0.52588888  1
  O  O113  1  0.30069081  0.22324950  0.74245330  1
  O  O114  1  0.14055118  0.17343830  0.72593127  1
  O  O115  1  0.23579634  0.47011307  0.71903265  1
  H  H116  1  0.18509541  0.33313693  0.92332792  1
  C  C117  1  0.43424652  0.00171760  0.89530620  1
  C  C118  1  0.15542628  0.34216624  0.96981830  1
  C  C119  1  0.05397113  0.36956493  0.83431469  1
  H  H120  1  0.29784849  0.01996258  0.84652260  1
  O  O121  1  0.00791514  0.05280664  0.96826994  1
  O  O122  1  0.18483847  0.23007725  0.93120981  1
  C  C123  1  0.09857660  0.34672487  0.77862749  1
  C  C124  1  0.04017395  0.34055551  0.90152377  1
  O  O125  1  0.13161089  0.31054735  0.80004883  1
  Zn  Zn126  1  0.44418777  0.19841846  0.82895391  1
  O  O127  1  0.37861016  0.24958253  0.79262448  1
  C  C128  1  0.03145607  0.41948860  0.80421495  1
  Zn  Zn129  1  0.13302099  0.22333976  0.82316108  1
  H  H130  1  0.06697324  0.30432984  0.92178497  1
  C  C131  1  0.38026989  0.08813902  0.85331184  1
  O  O132  1  0.33572749  0.11193021  0.83845430  1
  Zn  Zn133  1  0.26676314  0.42785680  0.88909255  1
  C  C134  1  0.13158876  0.39356204  0.98417119  1
  O  O135  1  0.42605597  0.11395540  0.85037901  1
  O  O136  1  0.17768427  0.44086390  0.87740082  1
  C  C137  1  0.14135324  0.44386402  0.92932317  1
  O  O138  1  0.04559312  0.23222916  0.84130887  1
  H  H139  1  0.04887111  0.44235597  0.75268290  1
  O  O140  1  0.34909301  0.41510116  0.98980664  1
  C  C141  1  0.18711683  0.02655341  0.95374637  1
  C  C142  1  0.16173834  0.23773561  0.99607718  1
  O  O143  1  0.18319669  0.06671460  0.91362999  1
  H  H144  1  0.47245700  0.02858054  0.90270201  1
  C  C145  1  0.01733370  0.19625915  0.80751262  1
  C  C146  1  0.38542255  0.02625085  0.87222379  1
  O  O147  1  0.30960162  0.45062691  0.78412686  1
  O  O148  1  0.11482572  0.48716394  0.94269648  1
  O  O149  1  0.02468881  0.14594868  0.82669066  1
  H  H150  1  0.22717391  0.65268203  0.18610250  1
  O  O151  1  0.08990943  0.86527967  0.02687808  1
  C  C152  1  0.36799183  0.57236561  0.03256296  1
  H  H153  1  0.03022497  0.58010033  0.17190351  1
  C  C154  1  0.14114684  0.57290854  0.06011485  1
  C  C155  1  0.17068417  0.59170828  0.12926310  1
  C  C156  1  0.47123953  0.65216651  0.08161376  1
  O  O157  1  0.32992934  0.88239978  0.16987128  1
  C  C158  1  0.20882094  0.67065962  0.05957418  1
  Zn  Zn159  1  0.09802858  0.96028312  0.03451488  1
  O  O160  1  0.39365504  0.78381327  0.06939202  1
  C  C161  1  0.16597113  0.55665611  0.20036317  1
  Zn  Zn162  1  0.32550767  0.79125408  0.19928157  1
  O  O163  1  0.31188775  0.55978289  0.14532015  1
  H  H164  1  0.44585164  0.62494254  0.12191929  1
  C  C165  1  0.20360182  0.63978091  0.13164640  1
  O  O166  1  0.00862020  0.96485309  0.00727219  1
  O  O167  1  0.37923874  0.71937093  0.15407721  1
  H  H168  1  0.11545958  0.53373737  0.06165007  1
  C  C169  1  0.35710778  0.55488982  0.11299291  1
  H  H170  1  0.23210468  0.93015863  0.00824139  1
  O  O171  1  0.39140892  0.52006518  0.13992574  1
  H  H172  1  0.15351757  0.90709923  0.19200584  1
  C  C173  1  0.24390389  0.72061040  0.07246152  1
  C  C174  1  0.45637355  0.70770349  0.06145950  1
  Zn  Zn175  1  0.45901055  0.53623337  0.22156573  1
  C  C176  1  0.24787740  0.96733945  0.04122188  1
  C  C177  1  0.30103640  0.90001059  0.11220358  1
  C  C178  1  0.28902768  0.96089574  0.09941668  1
  O  O179  1  0.27932036  0.86549309  0.06462168  1
  O  O180  1  0.27048635  0.73132278  0.13549620  1
  C  C181  1  0.40636056  0.73627375  0.09743903  1
  H  H182  1  0.32620906  0.65962495  0.04576722  1
  C  C183  1  0.00177303  0.66454546  0.21130550  1
  O  O184  1  0.25052849  0.75046747  0.01293506  1
  O  O185  1  0.13608550  0.51330213  0.19607895  1
  H  H186  1  0.43647726  0.50923125  0.01586279  1
  C  C187  1  0.18400184  0.92295378  0.23269022  1
  C  C188  1  0.18986712  0.98208486  0.24286010  1
  H  H189  1  0.00045330  0.84800406  0.01281634  1
  O  O190  1  0.11263504  0.99781471  0.15317579  1
  C  C191  1  0.48689215  0.73677675  0.00562439  1
  C  C192  1  0.35309171  0.63149083  0.01138390  1
  C  C193  1  0.21724292  0.88754554  0.27672973  1
  O  O194  1  0.25247379  0.79919778  0.27389757  1
  C  C195  1  0.21022469  0.82752246  0.26498372  1
  H  H196  1  0.28433441  0.87846697  0.35536079  1
  C  C197  1  0.40893498  0.64263741  0.40591958  1
  C  C198  1  0.02442055  0.50647844  0.38386505  1
  Zn  Zn199  1  0.28754080  0.56332360  0.26979011  1
  H  H200  1  0.32732734  0.72250970  0.31594196  1
  O  O201  1  0.44832637  0.60993009  0.28357841  1
  C  C202  1  0.26214221  0.96763664  0.33269258  1
  Zn  Zn203  1  0.10148749  0.78394980  0.35131569  1
  H  H204  1  0.33135860  0.61016026  0.46160944  1
  Zn  Zn205  1  0.13885618  0.61891686  0.35396049  1
  O  O206  1  0.11843166  0.70178066  0.42163371  1
  O  O207  1  0.21581934  0.63765489  0.41733654  1
  O  O208  1  0.26874062  0.64491705  0.31342896  1
  C  C209  1  0.40780103  0.60862419  0.33283057  1
  C  C210  1  0.27738004  0.71491231  0.41718368  1
  C  C211  1  0.25253643  0.66357695  0.37904008  1
  C  C212  1  0.38821450  0.81776316  0.35183885  1
  O  O213  1  0.32877357  0.96060171  0.43002321  1
  O  O214  1  0.41879233  0.85681844  0.37979973  1
  H  H215  1  0.48041121  0.68961517  0.37494663  1
  O  O216  1  0.37170161  0.57112133  0.32368458  1
  H  H217  1  0.00696808  0.59118341  0.42805807  1
  O  O218  1  0.05524189  0.73400825  0.27586622  1
  C  C219  1  0.34533525  0.78916352  0.40067319  1
  C  C220  1  0.32048446  0.73892016  0.37483396  1
  C  C221  1  0.44714996  0.68521680  0.41973959  1
  C  C222  1  0.25762808  0.90950717  0.32765766  1
  O  O223  1  0.10705222  0.54948867  0.42297555  1
  O  O224  1  0.05213587  0.85008270  0.38006168  1
  C  C225  1  0.26100654  0.73484997  0.49097756  1
  C  C226  1  0.36900562  0.63587510  0.46543492  1
  O  O227  1  0.19235261  0.56877232  0.26290867  1
  C  C228  1  0.33226592  0.80906177  0.47641982  1
  O  O229  1  0.39396127  0.80195592  0.28256581  1
  O  O230  1  0.16211674  0.80831606  0.25881598  1
  O  O231  1  0.09497438  0.65325915  0.25667018  1
  C  C232  1  0.01090434  0.83625716  0.42596491  1
  C  C233  1  0.44642300  0.71858634  0.48960297  1
  O  O234  1  0.00521689  0.78894725  0.44957904  1
  H  H235  1  0.01446907  0.94591920  0.37319565  1
  C  C236  1  0.13274426  0.71188004  0.49197073  1
  C  C237  1  0.08352819  0.50709732  0.39686709  1
  C  C238  1  0.29975495  0.99380928  0.39314179  1
  H  H239  1  0.34583468  0.85158421  0.49802983  1
  C  C240  1  0.05390986  0.68426681  0.25030160  1
  C  C241  1  0.17292888  0.66889444  0.62178415  1
  C  C242  1  0.10279737  0.57083125  0.60171580  1
  C  C243  1  0.13385249  0.66863377  0.55329875  1
  Zn  Zn244  1  0.17834183  0.59142535  0.56426650  1
  H  H245  1  0.19238514  0.71093672  0.63098039  1
  C  C246  1  0.09004342  0.62591807  0.56171853  1
  C  C247  1  0.14489568  0.56671780  0.66720494  1
  C  C248  1  0.18073221  0.61901945  0.67944469  1
  H  H249  1  0.04189444  0.74762680  0.68399180  1
  C  C250  1  0.43338043  0.98689089  0.69426737  1
  O  O251  1  0.32917369  0.68980864  0.65659506  1
  Zn  Zn252  1  0.30326145  0.93638974  0.55571897  1
  C  C253  1  0.17350482  0.93703718  0.57435220  1
  Zn  Zn254  1  0.15659095  0.81414751  0.61235503  1
  Zn  Zn255  1  0.27474525  0.72782067  0.74029726  1
  C  C256  1  0.01284426  0.77709347  0.70883371  1
  O  O257  1  0.14738036  0.89472031  0.55761928  1
  O  O258  1  0.32486121  0.98571370  0.64969049  1
  O  O259  1  0.01301432  0.54148072  0.60012838  1
  H  H260  1  0.22920261  0.71668385  0.52650860  1
  H  H261  1  0.06550755  0.94132670  0.62210563  1
  C  C262  1  0.32833815  0.65669864  0.59833037  1
  C  C263  1  0.08901673  0.97958480  0.63665506  1
  C  C264  1  0.14375222  0.98671143  0.61513313  1
  O  O265  1  0.24101790  0.78638139  0.64574000  1
  H  H266  1  0.40659528  0.73445931  0.60571877  1
  O  O267  1  0.29271685  0.62285728  0.58747320  1
  H  H268  1  0.41232368  0.94323395  0.70308080  1
  C  C269  1  0.27508440  0.80822931  0.59577836  1
  C  C270  1  0.37189054  0.66568055  0.53438614  1
  O  O271  1  0.21685648  0.94891417  0.53972760  1
  O  O272  1  0.29885545  0.85373494  0.61347473  1
  C  C273  1  0.40861210  0.70955874  0.54880922  1
  H  H274  1  0.15253346  0.52698841  0.70088442  1
  C  C275  1  0.29116434  0.78055985  0.51953005  1
  O  O276  1  0.11897135  0.80399926  0.71854444  1
  C  C277  1  0.06200574  0.52709164  0.59887355  1
  O  O278  1  0.14577563  0.76118410  0.50844284  1
  C  C279  1  0.42887849  0.78615836  0.73891660  1
  C  C280  1  0.08784628  0.84327740  0.74460895  1
  C  C281  1  0.02835626  0.82978014  0.74056727  1
  O  O282  1  0.40348217  0.82724341  0.72766754  1
  H  H283  1  0.05350826  0.62701881  0.52422265  1
  C  C284  1  0.48870652  0.99343112  0.70716603  1
  O  O285  1  0.49763585  0.78174138  0.57459975  1
  C  C286  1  0.49059600  0.76087003  0.50711725  1
  C  C287  1  0.10295790  0.83079938  0.97475800  1
  C  C288  1  0.01923251  0.66162358  0.83807113  1
  O  O289  1  0.10401362  0.88808163  0.77706449  1
  C  C290  1  0.46987887  0.53714021  0.85578697  1
  C  C291  1  0.48085325  0.90904501  0.94281781  1
  Zn  Zn292  1  0.32258283  0.80756199  0.98101672  1
  C  C293  1  0.01280902  0.71458246  0.88374124  1
  O  O294  1  0.14983745  0.98254611  0.94203618  1
  Zn  Zn295  1  0.11750851  0.57834453  0.89537696  1
  O  O296  1  0.18352911  0.59597405  0.81067522  1
  O  O297  1  0.36644152  0.74727026  0.90584058  1
  C  C298  1  0.42820181  0.56282297  0.90538326  1
  C  C299  1  0.18951483  0.63363031  0.75892303  1
  O  O300  1  0.20308312  0.68420871  0.77786661  1
  C  C301  1  0.43270081  0.94338941  0.91041914  1
  C  C302  1  0.38383306  0.91324997  0.90099758  1
  O  O303  1  0.14657040  0.83779586  0.93851832  1
  C  C304  1  0.28713784  0.90160629  0.85992285  1
  C  C305  1  0.06063473  0.74385207  0.90622651  1
  O  O306  1  0.24394701  0.92509288  0.83846634  1
  O  O307  1  0.29077814  0.85043922  0.87283431  1
  H  H308  1  0.38153159  0.86637080  0.91628329  1
  C  C309  1  0.36581404  0.64977593  0.92901445  1
  O  O310  1  0.31301862  0.69237797  0.83474032  1
  H  H311  1  0.43829775  0.64853429  0.84334005  1
  Zn  Zn312  1  0.34554158  0.56499706  0.91309382  1
  Zn  Zn313  1  0.16366534  0.91349302  0.86722411  1
  C  C314  1  0.34735287  0.69996219  0.88960868  1
  O  O315  1  0.46465565  0.54795557  0.78122387  1
  C  C316  1  0.33694840  0.94009781  0.87397329  1
  C  C317  1  0.41403798  0.62454046  0.88843873  1
  O  O318  1  0.47427679  0.85846424  0.95514799  1
  H  H319  1  0.09991693  0.72758480  0.88374177  1
  O  O320  1  0.06442455  0.64250667  0.82484345  1
  H  H321  1  0.19130324  0.67840968  0.92871673  1
  H  H322  1  0.47671012  0.78245987  0.99072654  1
  C  C323  1  0.41392887  0.54385573  0.98739520  1
  C  C324  1  0.05542822  0.79230213  0.95222052  1
  C  C325  1  0.18441338  0.65513972  0.98696333  1
  C  C326  1  0.33499694  0.99814012  0.86503825  1
  O  O327  1  0.45385154  0.74437767  0.75007469  1
  H  H328  1  0.00412488  0.90847574  0.78614893  1
  C  C329  1  0.00378148  0.80868969  0.97826860  1
  C  C330  1  0.15206150  0.60693981  0.99601022  1
  H  H331  1  0.96483629  0.11643450  0.05046408  1
  O  O332  1  0.94450430  0.36577480  0.05511926  1
  C  C333  1  0.88704541  0.16447917  0.14898027  1
  C  C334  1  0.89294140  0.10296566  0.12495363  1
  C  C335  1  0.97777394  0.33733797  0.01465458  1
  O  O336  1  0.91550326  0.20368914  0.11915301  1
  O  O337  1  0.65670663  0.04097951  0.18399529  1
  C  C338  1  0.94295684  0.02854641  0.06784046  1
  C  C339  1  0.62488111  0.01026966  0.22227079  1
  C  C340  1  0.85671551  0.06390522  0.16115641  1
  Zn  Zn341  1  0.96281779  0.43179431  0.12917068  1
  C  C342  1  0.93676783  0.08666388  0.07880987  1
  O  O343  1  0.91254912  0.40073380  0.22704224  1
  O  O344  1  0.55423342  0.04630064  0.01053335  1
  H  H345  1  0.82131697  0.07705014  0.20256926  1
  O  O346  1  0.85886490  0.17280176  0.21017531  1
  Zn  Zn347  1  0.72367898  0.00642629  0.12320274  1
  H  H348  1  0.81540426  0.06459893  0.02858526  1
  Zn  Zn349  1  0.98605713  0.25105016  0.14199515  1
  C  C350  1  0.99147312  0.01474924  0.01393903  1
  O  O351  1  0.99281555  0.28762452  0.02814227  1
  C  C352  1  0.87118388  0.00860473  0.15051101  1
  O  O353  1  0.72063461  0.14257347  0.42344793  1
  C  C354  1  0.93574385  0.03337488  0.37859270  1
  O  O355  1  0.78224938  0.47843859  0.37608489  1
  C  C356  1  0.78656100  0.43708442  0.42063368  1
  H  H357  1  0.59962482  0.32431409  0.46121176  1
  O  O358  1  0.89887454  0.07120444  0.39590895  1
  C  C359  1  0.65875766  0.05819670  0.34412895  1
  C  C360  1  0.91278216  0.23943069  0.41509999  1
  C  C361  1  0.59995407  0.39884722  0.33237404  1
  C  C362  1  0.69424879  0.41090016  0.37493100  1
  O  O363  1  0.82619362  0.42923178  0.46637819  1
  C  C364  1  0.64485571  0.38205961  0.38855093  1
  O  O365  1  0.92009826  0.36820623  0.34722239  1
  C  C366  1  0.94721781  0.45808818  0.32999521  1
  C  C367  1  0.63852550  0.34357060  0.45079616  1
  Zn  Zn368  1  0.88627428  0.35743301  0.46164026  1
  H  H369  1  0.70150679  0.44164535  0.32685847  1
  O  O370  1  0.88335044  0.20684281  0.37670423  1
  H  H371  1  0.67792238  0.09055228  0.30781217  1
  O  O372  1  0.55322063  0.37829671  0.35089499  1
  Zn  Zn373  1  0.88168929  0.13114859  0.31297204  1
  O  O374  1  0.89639073  0.27291491  0.46746207  1
  O  O375  1  0.60404986  0.43833730  0.28712730  1
  C  C376  1  0.66347804  0.05877310  0.42638683  1
  C  C377  1  0.73659783  0.39923342  0.42603029  1
  C  C378  1  0.92281991  0.40641709  0.29753614  1
  O  O379  1  0.96504025  0.04372910  0.32200215  1
  H  H380  1  0.97300723  0.19119717  0.28589062  1
  H  H381  1  0.98757577  0.29423621  0.49368007  1
  C  C382  1  0.63224975  0.02481555  0.47729300  1
  C  C383  1  0.62596993  0.01760020  0.30972896  1
  C  C384  1  0.97220556  0.24105491  0.39200518  1
  H  H385  1  0.86640316  0.00181857  0.49765179  1
  C  C386  1  0.73166578  0.36045660  0.48716462  1
  C  C387  1  0.99647441  0.21527445  0.32720996  1
  C  C388  1  0.69696008  0.10548884  0.46209306  1
  O  O389  1  0.50799245  0.32718336  0.48258228  1
  H  H390  1  0.86959211  0.49911917  0.32015099  1
  C  C391  1  0.68380475  0.32736065  0.49762711  1
  C  C392  1  0.68130929  0.28086032  0.55629293  1
  O  O393  1  0.70529953  0.10551502  0.53603895  1
  H  H394  1  0.86566467  0.25872632  0.59768446  1
  O  O395  1  0.72343913  0.26302938  0.59188448  1
  Zn  Zn396  1  0.75093868  0.17728165  0.58980184  1
  C  C397  1  0.90616341  0.18958986  0.65713843  1
  H  H398  1  0.95257891  0.12612991  0.72307129  1
  Zn  Zn399  1  0.88835436  0.00789347  0.70274848  1
  C  C400  1  0.92861103  0.34569930  0.64392042  1
  C  C401  1  0.52047161  0.04381995  0.70444930  1
  O  O402  1  0.97489127  0.04067586  0.74606671  1
  C  C403  1  0.94285788  0.17138918  0.71472314  1
  C  C404  1  0.93129080  0.28680993  0.67544458  1
  C  C405  1  0.96948358  0.27051473  0.73299782  1
  O  O406  1  0.96804698  0.37703385  0.67004392  1
  O  O407  1  0.83581428  0.16638387  0.57553819  1
  Zn  Zn408  1  0.57466313  0.25516153  0.66164222  1
  C  C409  1  0.89764417  0.24622844  0.63929872  1
  O  O410  1  0.52059637  0.31785676  0.60851930  1
  O  O411  1  0.89592937  0.35959625  0.59413424  1
  O  O412  1  0.63537643  0.26076111  0.57523714  1
  C  C413  1  0.87078375  0.14475575  0.62010781  1
  O  O414  1  0.87864567  0.09296838  0.63113154  1
  H  H415  1  0.63439409  0.02913420  0.54212215  1
  O  O416  1  0.72890072  0.14787155  0.70277370  1
  O  O417  1  0.56244015  0.16473852  0.67503523  1
  H  H418  1  0.75792744  0.47534710  0.69948907  1
  C  C419  1  0.51405906  0.15058673  0.69103428  1
  H  H420  1  0.56519619  0.04687723  0.71283598  1
  H  H421  1  0.76415808  0.35446948  0.53139223  1
  C  C422  1  0.71560730  0.10350135  0.73978308  1
  H  H423  1  0.64648448  0.19413615  0.74651522  1
  O  O424  1  0.73415527  0.05678149  0.72895798  1
  H  H425  1  0.53978687  0.13177438  0.92675053  1
  O  O426  1  0.88549064  0.08573495  0.90458319  1
  C  C427  1  0.59346713  0.16940121  0.84155440  1
  O  O428  1  0.51903544  0.23102442  0.87438363  1
  C  C429  1  0.64009479  0.16194610  0.79414900  1
  C  C430  1  0.68784114  0.46450380  0.82946837  1
  H  H431  1  0.67937265  0.02700055  0.85638847  1
  C  C432  1  0.57814019  0.12717883  0.89219787  1
  O  O433  1  0.67871088  0.42557725  0.78617511  1
  C  C434  1  0.60863822  0.07706473  0.89625243  1
  C  C435  1  0.85009193  0.05677644  0.86761418  1
  H  H436  1  0.93234144  0.43160411  0.94765573  1
  C  C437  1  0.80725180  0.02317124  0.91050273  1
  C  C438  1  0.96814603  0.41456582  0.91795276  1
  Zn  Zn439  1  0.96655578  0.08429576  0.85942163  1
  C  C440  1  0.59195646  0.03644491  0.96149165  1
  O  O441  1  0.84894304  0.05730047  0.79334610  1
  C  C442  1  0.95927367  0.49323723  0.82129214  1
  C  C443  1  0.56416977  0.22713477  0.83842556  1
  O  O444  1  0.57758612  0.26622631  0.79185771  1
  C  C445  1  0.65408078  0.06648028  0.84889486  1
  O  O446  1  0.66055385  0.47034446  0.89599259  1
  C  C447  1  0.66830235  0.11005196  0.79936724  1
  C  C448  1  0.99628714  0.36638410  0.94354446  1
  C  C449  1  0.79404764  0.03409039  0.99222016  1
  C  C450  1  0.98622630  0.43861092  0.84704586  1
  H  H451  1  0.99744956  0.30207522  0.76055728  1
  C  C452  1  0.97314180  0.21320859  0.75125111  1
  Zn  Zn453  1  0.59959101  0.76266551  0.08760589  1
  C  C454  1  0.67080358  0.80765651  0.10797563  1
  C  C455  1  0.71784081  0.82412265  0.06048746  1
  C  C456  1  0.62476818  0.83575745  0.12796459  1
  O  O457  1  0.59536673  0.97097384  0.19241032  1
  O  O458  1  0.91530984  0.54172738  0.02144524  1
  H  H459  1  0.92301959  0.94023406  0.10303014  1
  O  O460  1  0.57824166  0.54877437  0.03149326  1
  C  C461  1  0.67391408  0.74869083  0.14599309  1
  O  O462  1  0.78903530  0.98468445  0.21893004  1
  C  C463  1  0.83435095  0.96715866  0.19362918  1
  C  C464  1  0.53003384  0.85910843  0.18902609  1
  Zn  Zn465  1  0.55282658  0.96863700  0.08607850  1
  O  O466  1  0.75131373  0.85800814  0.08720207  1
  O  O467  1  0.90059886  0.83421930  0.03615135  1
  O  O468  1  0.52596223  0.54202227  0.13491712  1
  O  O469  1  0.85981288  0.77221359  0.19392220  1
  C  C470  1  0.51819179  0.62510146  0.05039457  1
  O  O471  1  0.82158043  0.70830650  0.11369604  1
  Zn  Zn472  1  0.83726659  0.84468369  0.13272049  1
  C  C473  1  0.95851984  0.70292803  0.20380219  1
  C  C474  1  0.54107495  0.56866372  0.07571403  1
  H  H475  1  0.87132643  0.63195331  0.07995776  1
  C  C476  1  0.57786699  0.82372204  0.17218918  1
  H  H477  1  0.71342729  0.72882965  0.16416136  1
  C  C478  1  0.95202963  0.60163805  0.12176182  1
  C  C479  1  0.90865708  0.64033225  0.11368968  1
  C  C480  1  0.91474110  0.98643526  0.10565051  1
  C  C481  1  0.94854407  0.54740400  0.07466574  1
  O  O482  1  0.51537080  0.89119413  0.13459667  1
  O  O483  1  0.84695990  0.91613855  0.20363760  1
  C  C484  1  0.91270508  0.68928145  0.15839334  1
  C  C485  1  0.86218137  0.72734125  0.15145805  1
  O  O486  1  0.66148656  0.63371390  0.19556180  1
  C  C487  1  0.62487627  0.72535577  0.18932667  1
  C  C488  1  0.99638475  0.61251005  0.17136027  1
  C  C489  1  0.63152760  0.66812656  0.22215463  1
  O  O490  1  0.98613812  0.51328369  0.09017658  1
  C  C491  1  0.57722189  0.76329354  0.20607049  1
  H  H492  1  0.96340594  0.74269289  0.23566953  1
  C  C493  1  0.75376929  0.99439126  0.01878774  1
  Zn  Zn494  1  0.79949561  0.73123227  0.00197212  1
  H  H495  1  0.69727263  0.92297401  0.00440213  1
  C  C496  1  0.99165901  0.55501745  0.39858800  1
  H  H497  1  0.60971781  0.61342005  0.29298702  1
  O  O498  1  0.50993339  0.86482013  0.25782932  1
  H  H499  1  0.54670488  0.75094814  0.25660712  1
  C  C500  1  0.97813154  0.93593917  0.41079596  1
  H  H501  1  0.56624822  0.95123238  0.32664678  1
  C  C502  1  0.93971436  0.55141535  0.37226815  1
  O  O503  1  0.91423306  0.63326330  0.44184546  1
  C  C504  1  0.89943288  0.59762708  0.39145032  1
  C  C505  1  0.59933891  0.98691632  0.43744024  1
  C  C506  1  0.56379038  0.94353422  0.47943884  1
  O  O507  1  0.85524004  0.59989109  0.35281654  1
  O  O508  1  0.76200224  0.72824561  0.38213507  1
  O  O509  1  0.52255156  0.92557948  0.44349659  1
  Zn  Zn510  1  0.77012236  0.57035461  0.38582586  1
  C  C511  1  0.72740746  0.69349134  0.39349683  1
  O  O512  1  0.72791868  0.64618799  0.35307802  1
  C  C513  1  0.96959531  0.88289251  0.44351547  1
  C  C514  1  0.89570715  0.96883727  0.47992540  1
  C  C515  1  0.68527266  0.70176779  0.46056802  1
  H  H516  1  0.64849285  0.61761457  0.42744029  1
  C  C517  1  0.93674239  0.97571107  0.42298658  1
  O  O518  1  0.52252429  0.77503136  0.45225869  1
  C  C519  1  0.64717143  0.65735345  0.46718583  1
  O  O520  1  0.59968937  0.65257576  0.28891902  1
  C  C521  1  0.59483420  0.98115893  0.35634402  1
  Zn  Zn522  1  0.50858584  0.84556228  0.38217594  1
  C  C523  1  0.92721349  0.87028431  0.49756767  1
  C  C524  1  0.91331634  0.50195075  0.33986033  1
  O  O525  1  0.56265575  0.58691062  0.49433050  1
  O  O526  1  0.73098002  0.56480997  0.49982018  1
  C  C527  1  0.91640542  0.80263254  0.72404152  1
  H  H528  1  0.66108353  0.55096288  0.62656740  1
  O  O529  1  0.97782399  0.97250045  0.66723276  1
  C  C530  1  0.95743050  0.76441220  0.69862422  1
  O  O531  1  0.88079039  0.58301293  0.66469307  1
  O  O532  1  0.84222093  0.50804117  0.61411298  1
  C  C533  1  0.74992019  0.60367734  0.54103292  1
  C  C534  1  0.68238253  0.58794813  0.65374508  1
  C  C535  1  0.84564249  0.54175875  0.66600218  1
  O  O536  1  0.70309448  0.83391052  0.62063182  1
  H  H537  1  0.58466812  0.71964842  0.62795005  1
  C  C538  1  0.61179665  0.66575488  0.52960373  1
  C  C539  1  0.89462023  0.91636525  0.51680806  1
  Zn  Zn540  1  0.87575895  0.64057158  0.55345031  1
  O  O541  1  0.50682317  0.89537469  0.70472590  1
  C  C542  1  0.65391940  0.75473713  0.56979356  1
  C  C543  1  0.61253414  0.71440366  0.57733732  1
  O  O544  1  0.61899934  0.81686378  0.66405840  1
  C  C545  1  0.66654317  0.60370461  0.73135367  1
  C  C546  1  0.73115964  0.67593180  0.73456277  1
  C  C547  1  0.72391628  0.61800776  0.61851867  1
  O  O548  1  0.79171441  0.63137620  0.52141845  1
  O  O549  1  0.84004609  0.86511791  0.60580640  1
  C  C550  1  0.56675465  0.62079938  0.54549262  1
  Zn  Zn551  1  0.97448861  0.59094117  0.69451120  1
  H  H552  1  0.77912854  0.69346535  0.63023466  1
  Zn  Zn553  1  0.77756320  0.84517607  0.69645021  1
  O  O554  1  0.57375858  0.92871534  0.54771182  1
  C  C555  1  0.94559079  0.71385342  0.65028070  1
  C  C556  1  0.74832646  0.66430955  0.65885712  1
  O  O557  1  0.98084529  0.67690591  0.63465389  1
  Zn  Zn558  1  0.54853650  0.85379936  0.60764444  1
  C  C559  1  0.85255405  0.91310279  0.58413824  1
  O  O560  1  0.89692340  0.70743208  0.62808909  1
  O  O561  1  0.83771706  0.95801641  0.61645994  1
  O  O562  1  0.53539138  0.62240391  0.60554894  1
  C  C563  1  0.66180128  0.80397337  0.62585062  1
  Zn  Zn564  1  0.51440835  0.55463300  0.68420722  1
  C  C565  1  0.80965595  0.54186667  0.74113826  1
  O  O566  1  0.78921276  0.75674003  0.73345441  1
  H  H567  1  0.92109597  0.82600881  0.52591055  1
  H  H568  1  0.87250360  0.79236685  0.71306115  1
  C  C569  1  0.52577861  0.94317976  0.72171942  1
  O  O570  1  0.59536517  0.53641985  0.72218501  1
  C  C571  1  0.76778738  0.50181366  0.74798732  1
  H  H572  1  0.72290573  0.78471801  0.50298953  1
  C  C573  1  0.69190311  0.74811489  0.51075195  1
  C  C574  1  0.71380149  0.90252699  0.84482882  1
  C  C575  1  0.56992384  0.74367134  0.91640772  1
  Zn  Zn576  1  0.59098894  0.92866742  0.87545965  1
  O  O577  1  0.61874871  0.72566701  0.89869399  1
  C  C578  1  0.88461337  0.88982303  0.78415465  1
  C  C579  1  0.73900572  0.94817559  0.89426539  1
  O  O580  1  0.67229495  0.87633568  0.87377334  1
  O  O581  1  0.98253110  0.52045272  0.76634229  1
  O  O582  1  0.89379383  0.94033764  0.80161272  1
  C  C583  1  0.69069466  0.64584164  0.77511449  1
  O  O584  1  0.85907176  0.78098570  0.95266501  1
  O  O585  1  0.83899514  0.86784386  0.79155869  1
  Zn  Zn586  1  0.58676964  0.50819002  0.91388042  1
  H  H587  1  0.58643349  0.63628471  0.96876249  1
  C  C588  1  0.98848901  0.86692069  0.76520868  1
  C  C589  1  0.75605533  0.72808148  0.77253513  1
  H  H590  1  0.71873842  0.53899508  0.93271386  1
  O  O591  1  0.91989545  0.51166564  0.85872954  1
  Zn  Zn592  1  0.67951018  0.78472252  0.88956926  1
  H  H593  1  0.92423932  0.70738862  0.88642426  1
  C  C594  1  0.95942306  0.73179680  0.90539644  1
  H  H595  1  0.85052476  0.61687532  0.78967766  1
  C  C596  1  0.74171356  0.54458853  0.87793218  1
  O  O597  1  0.60232917  0.58350325  0.83648276  1
  O  O598  1  0.97481887  0.63369249  0.81655903  1
  O  O599  1  0.74342486  0.73777629  0.84271930  1
  O  O600  1  0.85464686  0.64227778  0.92410663  1
  O  O601  1  0.57182947  0.94526499  0.75729327  1
  O  O602  1  0.52849434  0.93382697  0.95997257  1
  C  C603  1  0.77836109  0.98537180  0.86561450  1
  C  C604  1  0.78723972  0.57824772  0.86775196  1
  C  C605  1  0.80673278  0.61916994  0.93215110  1
  C  C606  1  0.61989745  0.57285316  0.76889934  1
  Zn  Zn607  1  0.92302908  0.59272159  0.91448851  1
  O  O608  1  0.55851396  0.79210625  0.89948551  1
  C  C609  1  0.53254534  0.70961165  0.97401296  1
  H  H610  1  0.67573000  0.65497542  0.83634877  1
  C  C611  1  0.82008450  0.58125233  0.79821990  1
  H  H612  1  0.78901924  0.97690809  0.80354947  1
  O  O613  1  0.72614540  0.89664090  0.77484555  1
  O  O614  1  0.77466222  0.63484029  0.98454879  1
  C  C615  1  0.95712408  0.77710961  0.95532924  1
  C  C616  1  0.72800148  0.95052271  0.97758711  1
  C  C617  1  0.90208812  0.80030272  0.97949572  1
  C  C618  1  0.93269571  0.85318836  0.75793302  1
  C  C619  1  0.73542186  0.50463649  0.81680709  1
  C  C620  1  0.54869285  0.65487346  0.99427462  1
  O  O621  1  0.50519035  0.50406588  0.87882824  1
  O  O622  1  0.61680971  0.98702501  0.97206320  1
  O  O623  1  0.72768456  0.79727875  0.99708439  1
