# generated using pymatgen
data_ZnH12C19N5O4
_symmetry_space_group_name_H-M   'P 1'
_cell_length_a   30.73258504
_cell_length_b   29.82667856
_cell_length_c   9.96403948
_cell_angle_alpha   90.00000000
_cell_angle_beta   90.00000000
_cell_angle_gamma   90.00000000
_symmetry_Int_Tables_number   1
_chemical_formula_structural   ZnH12C19N5O4
_chemical_formula_sum   'Zn18 H216 C342 N90 O72'
_cell_volume   9133.54610552
_cell_formula_units_Z   18
loop_
 _symmetry_equiv_pos_site_id
 _symmetry_equiv_pos_as_xyz
  1  'x, y, z'
loop_
 _atom_site_type_symbol
 _atom_site_label
 _atom_site_symmetry_multiplicity
 _atom_site_fract_x
 _atom_site_fract_y
 _atom_site_fract_z
 _atom_site_occupancy
  C  C0  1  0.15160090  0.15847452  0.18242121  1
  C  C1  1  0.20247595  0.02333019  0.18314332  1
  C  C2  1  0.14298217  0.17231091  0.29706788  1
  C  C3  1  0.17331239  0.03815807  0.30444636  1
  C  C4  1  0.14166563  0.19399303  0.41726917  1
  O  O5  1  0.20270828  0.04168618  0.07488209  1
  H  H6  1  0.13400507  0.08059473  0.17750021  1
  C  C7  1  0.14052388  0.06886696  0.27876070  1
  C  C8  1  0.11322187  0.08121457  0.38514790  1
  C  C9  1  0.18137648  0.02050611  0.43363477  1
  H  H10  1  0.08530586  0.10465877  0.36176588  1
  H  H11  1  0.22571906  0.19510246  0.11377497  1
  C  C12  1  0.21186284  0.17464279  0.03162225  1
  C  C13  1  0.03964501  0.01880793  0.06901678  1
  H  H14  1  0.00762007  0.03192656  0.02900480  1
  C  C15  1  0.17187980  0.15070133  0.05248539  1
  H  H16  1  0.07166469  0.17722970  0.03332688  1
  C  C17  1  0.11602193  0.00686340  0.02720921  1
  H  H18  1  0.24144338  0.44772992  0.02762415  1
  C  C19  1  0.17274695  0.45858970  0.05717899  1
  H  H20  1  0.06129848  0.47684176  0.11119238  1
  C  C21  1  0.24972724  0.30473756  0.33451933  1
  Zn  Zn22  1  0.11127307  0.44911210  0.27237995  1
  N  N23  1  0.06769846  0.49006684  0.20852864  1
  N  N24  1  0.00472817  0.38228237  0.28926729  1
  H  H25  1  0.04333643  0.48118993  0.27178116  1
  H  H26  1  0.23562614  0.33884186  0.32424620  1
  N  N27  1  0.12662477  0.48003000  0.45778989  1
  C  C28  1  0.03369155  0.39906472  0.37166996  1
  N  N29  1  0.16176321  0.43589245  0.15419886  1
  O  O30  1  0.02771870  0.33707192  0.05274408  1
  Zn  Zn31  1  0.12409355  0.36266619  0.42076509  1
  N  N32  1  0.07647691  0.39512250  0.34087990  1
  H  H33  1  0.01790277  0.36242871  0.21021885  1
  N  N34  1  0.12030723  0.29561688  0.42861201  1
  H  H35  1  0.06454547  0.25703210  0.08854675  1
  N  N36  1  0.19673638  0.39078458  0.19763077  1
  N  N37  1  0.02543095  0.42906503  0.46659020  1
  N  N38  1  0.17863741  0.36870396  0.28295618  1
  O  O39  1  0.14935110  0.28720100  0.01191262  1
  H  H40  1  0.15354359  0.16512588  0.68523240  1
  C  C41  1  0.14534259  0.20147744  0.66901002  1
  C  C42  1  0.07852823  0.12485383  0.66994435  1
  C  C43  1  0.09516639  0.08134183  0.64697930  1
  C  C44  1  0.09330758  0.04616087  0.74209449  1
  C  C45  1  0.05630871  0.13567944  0.78995983  1
  H  H46  1  0.15349274  0.21413277  0.87427913  1
  H  H47  1  0.16702249  0.08777918  0.75966978  1
  C  C48  1  0.04643426  0.18555145  0.82861485  1
  C  C49  1  0.17597852  0.11434345  0.83457579  1
  C  C50  1  0.07571583  0.05954549  0.86886230  1
  C  C51  1  0.05561869  0.10260090  0.89258531  1
  H  H52  1  0.08350743  0.15053765  0.59073050  1
  C  C53  1  0.05638518  0.20078931  0.96212038  1
  C  C54  1  0.03301588  0.21798729  0.73343151  1
  C  C55  1  0.21680090  0.13403446  0.82154825  1
  H  H56  1  0.10913274  0.01597674  0.71369414  1
  C  C57  1  0.15226803  0.12409713  0.94971739  1
  O  O58  1  0.22577882  0.09540144  0.61624987  1
  H  H59  1  0.02657065  0.20486972  0.63360292  1
  H  H60  1  0.12294444  0.10472368  0.97019967  1
  C  C61  1  0.14699551  0.23064508  0.77422522  1
  H  H62  1  0.16567083  0.02356711  0.64827583  1
  C  C63  1  0.15783444  0.03775579  0.54541075  1
  H  H64  1  0.04010966  0.11004635  0.99186912  1
  C  C65  1  0.12155125  0.06686871  0.51958699  1
  C  C66  1  0.23498827  0.16559999  0.91409548  1
  C  C67  1  0.14059565  0.21901871  0.53491732  1
  C  C68  1  0.07674747  0.02897801  0.99376628  1
  C  C69  1  0.24274139  0.11772287  0.70050296  1
  H  H70  1  0.14658627  0.01026709  0.97234696  1
  C  C71  1  0.05524883  0.24627563  0.98960634  1
  H  H72  1  0.01696347  0.49735828  0.83386968  1
  Zn  Zn73  1  0.07094422  0.46272968  0.54568309  1
  C  C74  1  0.14156080  0.27818978  0.77608608  1
  N  N75  1  0.16778108  0.48725515  0.97975575  1
  Zn  Zn76  1  0.15008812  0.39692486  0.69220747  1
  N  N77  1  0.08304620  0.49639655  0.82247350  1
  H  H78  1  0.20281811  0.36171691  0.62080011  1
  N  N79  1  0.12944862  0.34097188  0.61224724  1
  N  N80  1  0.09165032  0.43160567  0.71316129  1
  H  H81  1  0.01820369  0.28904103  0.69706298  1
  C  C82  1  0.14688945  0.30648341  0.90235894  1
  C  C83  1  0.16442105  0.47670304  0.52570634  1
  N  N84  1  0.18045644  0.43456700  0.55633413  1
  C  C85  1  0.02953127  0.26361891  0.76793018  1
  C  C86  1  0.08416345  0.45305547  0.82243029  1
  O  O87  1  0.14963254  0.34826577  0.89907542  1
  N  N88  1  0.22730894  0.44047716  0.82240436  1
  O  O89  1  0.23923252  0.29951613  0.69304145  1
  N  N90  1  0.21423626  0.40306575  0.79961647  1
  H  H91  1  0.20771789  0.43690598  0.61752888  1
  N  N92  1  0.06993141  0.42566620  0.93807755  1
  O  O93  1  0.22989831  0.35794332  0.55120534  1
  H  H94  1  0.03897624  0.41370093  0.93131300  1
  O  O95  1  0.02530349  0.35189127  0.84057671  1
  C  C96  1  0.12994071  0.27042632  0.52917788  1
  C  C97  1  0.24047927  0.31378219  0.57986529  1
  C  C98  1  0.03051647  0.32733782  0.93152131  1
  C  C99  1  0.03808430  0.27642213  0.89592120  1
  C  C100  1  0.13399779  0.29994515  0.64999077  1
  H  H101  1  0.08665308  0.39750286  0.96063906  1
  N  N102  1  0.06834388  0.55093452  0.21570649  1
  N  N103  1  0.08932330  0.56231340  0.11705629  1
  C  C104  1  0.12482331  0.65599595  0.28429381  1
  C  C105  1  0.16266825  0.66695018  0.21411608  1
  H  H106  1  0.18742847  0.64124542  0.21615606  1
  C  C107  1  0.09317851  0.69069170  0.27932010  1
  H  H108  1  0.11590463  0.62426234  0.33499033  1
  C  C109  1  0.05277090  0.68222112  0.35546261  1
  C  C110  1  0.17153548  0.70781977  0.14034243  1
  C  C111  1  0.21598877  0.72060454  0.09185569  1
  C  C112  1  0.09738137  0.73163014  0.20646808  1
  O  O113  1  0.04670193  0.63800044  0.39351871  1
  C  C114  1  0.00326879  0.62573814  0.45008615  1
  N  N115  1  0.02619523  0.63590556  0.07658874  1
  H  H116  1  0.01615820  0.64401072  0.17108318  1
  O  O117  1  0.02446140  0.70984860  0.36724009  1
  O  O118  1  0.23593608  0.64703244  0.46331171  1
  C  C119  1  0.13405633  0.73693683  0.12897962  1
  H  H120  1  0.01167719  0.60437073  0.06707185  1
  C  C121  1  0.19622236  0.65050005  0.48398268  1
  O  O122  1  0.23023643  0.52159387  0.19871479  1
  H  H123  1  0.05958130  0.63301505  0.09098855  1
  O  O124  1  0.17540363  0.61563812  0.49218563  1
  H  H125  1  0.07008884  0.75574621  0.21258852  1
  C  C126  1  0.11419003  0.98297898  0.14338731  1
  O  O127  1  0.22513608  0.99079936  0.20796305  1
  H  H128  1  0.00746493  0.98855213  0.25128120  1
  C  C129  1  0.03787899  0.99434572  0.18719436  1
  O  O130  1  0.13168077  0.93692089  0.37055639  1
  H  H131  1  0.14394501  0.96882467  0.18187139  1
  C  C132  1  0.14319306  0.82506593  0.22771291  1
  C  C133  1  0.07842969  0.97859973  0.23395624  1
  C  C134  1  0.13580871  0.90105531  0.43131882  1
  C  C135  1  0.19957466  0.88347402  0.10239323  1
  H  H136  1  0.20109882  0.79593755  0.33160803  1
  O  O137  1  0.05990655  0.95006727  0.44421735  1
  C  C138  1  0.08626592  0.95673833  0.36201452  1
  C  C139  1  0.18767265  0.81985419  0.25904938  1
  H  H140  1  0.13633680  0.76816793  0.07106759  1
  H  H141  1  0.12187548  0.80354077  0.28124244  1
  C  C142  1  0.12978189  0.85590840  0.13194016  1
  C  C143  1  0.15723721  0.88663023  0.06271814  1
  C  C144  1  0.21471730  0.85104855  0.19481384  1
  O  O145  1  0.05574723  0.83692124  0.15876116  1
  H  H146  1  0.22360932  0.90506054  0.05731142  1
  H  H147  1  0.16896123  0.88776810  0.40195469  1
  C  C148  1  0.08068123  0.86096765  0.09722580  1
  H  H149  1  0.20495192  0.99258875  0.44965854  1
  H  H150  1  0.18656385  0.78329365  0.02929954  1
  C  C151  1  0.21483876  0.76401017  0.03196658  1
  O  O152  1  0.07003413  0.88982026  0.01628717  1
  C  C153  1  0.15089978  0.64409541  0.82867271  1
  C  C154  1  0.09946592  0.65016599  0.82943912  1
  N  N155  1  0.15698539  0.56096762  0.82198806  1
  C  C156  1  0.17457585  0.60421092  0.82337208  1
  Zn  Zn157  1  0.11336679  0.54039943  0.67202749  1
  O  O158  1  0.07831782  0.61532767  0.82589952  1
  C  C159  1  0.17431244  0.68499569  0.83720893  1
  N  N160  1  0.07097337  0.56776230  0.54899858  1
  C  C161  1  0.02915273  0.55362099  0.51465743  1
  H  H162  1  0.15675695  0.71546025  0.85647935  1
  O  O163  1  0.08385739  0.68734226  0.84751204  1
  C  C164  1  0.22245064  0.60208367  0.80922703  1
  C  C165  1  0.21870862  0.68714684  0.81993148  1
  H  H166  1  0.07929211  0.59963957  0.54217562  1
  N  N167  1  0.17143696  0.50862215  0.61043547  1
  Zn  Zn168  1  0.19949698  0.50657410  0.80641245  1
  C  C169  1  0.13179114  0.70469552  0.52062081  1
  C  C170  1  0.17726327  0.69704341  0.50453725  1
  H  H171  1  0.10923524  0.67580064  0.50990104  1
  Zn  Zn172  1  0.11786586  0.53166473  0.96643113  1
  C  C173  1  0.24452807  0.64601828  0.79992840  1
  N  N174  1  0.24068493  0.56309303  0.81269974  1
  H  H175  1  0.00554063  0.64031564  0.55547105  1
  N  N176  1  0.02394804  0.50835003  0.51758484  1
  H  H177  1  0.23697936  0.71858972  0.81737888  1
  C  C178  1  0.20796905  0.73200486  0.52805966  1
  C  C179  1  0.11617342  0.74755683  0.53452554  1
  H  H180  1  0.24515626  0.72510192  0.53286344  1
  C  C181  1  0.19491665  0.77513569  0.55033180  1
  C  C182  1  0.24357201  0.82132476  0.86972351  1
  C  C183  1  0.12984974  0.82869444  0.53091064  1
  O  O184  1  0.23351018  0.97836692  0.68076033  1
  C  C185  1  0.18911782  0.87060117  0.76463833  1
  O  O186  1  0.16700097  0.95992155  0.70210727  1
  H  H187  1  0.14483658  0.91042041  0.98397978  1
  C  C188  1  0.11376196  0.87132350  0.52094119  1
  H  H189  1  0.21607993  0.80304078  0.55949642  1
  H  H190  1  0.08275116  0.88308898  0.57514240  1
  H  H191  1  0.17628499  0.80118013  0.82275761  1
  C  C192  1  0.14739947  0.78527920  0.54765200  1
  C  C193  1  0.22096235  0.90336266  0.75611872  1
  H  H194  1  0.15527453  0.87932995  0.73668928  1
  C  C195  1  0.20468748  0.95036960  0.70750481  1
  C  C196  1  0.20148456  0.82833415  0.81632310  1
  H  H197  1  0.08141502  0.75634426  0.53004378  1
  H  H198  1  0.29993556  0.14857422  0.23081782  1
  C  C199  1  0.31045224  0.16755177  0.14414191  1
  C  C200  1  0.30566455  0.21510221  0.13386722  1
  C  C201  1  0.28402122  0.21382142  0.37448998  1
  H  H202  1  0.31426734  0.04130750  0.41506566  1
  O  O203  1  0.36815235  0.10210171  0.38099562  1
  C  C204  1  0.39671315  0.07083239  0.37126331  1
  C  C205  1  0.38127840  0.02250563  0.36634093  1
  C  C206  1  0.33750751  0.01426033  0.38711123  1
  O  O207  1  0.43515222  0.07767500  0.34706523  1
  H  H208  1  0.30104636  0.18076210  0.38487869  1
  N  N209  1  0.48505674  0.16100669  0.16114474  1
  C  C210  1  0.33347796  0.09266202  0.02652879  1
  C  C211  1  0.37498670  0.07219898  0.03292252  1
  C  C212  1  0.37944512  0.02700888  0.04927229  1
  H  H213  1  0.40406850  0.09451472  0.03132580  1
  C  C214  1  0.28539369  0.23859553  0.24867624  1
  O  O215  1  0.40929587  0.24100932  0.30463003  1
  C  C216  1  0.32872293  0.14373106  0.03417935  1
  C  C217  1  0.29520242  0.06714063  0.02238464  1
  C  C218  1  0.29985222  0.02008381  0.02497346  1
  H  H219  1  0.26482341  0.08465320  0.00667808  1
  N  N220  1  0.46743072  0.23365340  0.05743813  1
  N  N221  1  0.46762194  0.17628555  0.06054192  1
  C  C222  1  0.31892234  0.23846764  0.01623793  1
  H  H223  1  0.49811606  0.18632099  0.23107862  1
  C  C224  1  0.34158347  0.00020302  0.03910346  1
  H  H225  1  0.41228613  0.01457334  0.06133418  1
  C  C226  1  0.26822503  0.23903606  0.48606449  1
  C  C227  1  0.38549696  0.26349209  0.36410255  1
  C  C228  1  0.25130338  0.28300482  0.46473090  1
  H  H229  1  0.48187773  0.27817538  0.25987979  1
  H  H230  1  0.42034628  0.40596874  0.22730452  1
  C  C231  1  0.47953476  0.45685748  0.47881742  1
  C  C232  1  0.35587893  0.34368173  0.09324056  1
  C  C233  1  0.33502364  0.40586683  0.26865480  1
  C  C234  1  0.48636332  0.30156607  0.33722445  1
  C  C235  1  0.47615243  0.37484884  0.43460329  1
  C  C236  1  0.28051859  0.46009201  0.21058132  1
  C  C237  1  0.37103651  0.31090205  0.18257555  1
  C  C238  1  0.26885203  0.28487740  0.22458081  1
  H  H239  1  0.38835013  0.28403040  0.13192508  1
  C  C240  1  0.46035383  0.42238595  0.40417049  1
  H  H241  1  0.39821945  0.42446094  0.06842824  1
  H  H242  1  0.26795833  0.30046125  0.12302199  1
  C  C243  1  0.41777675  0.47701339  0.28152190  1
  C  C244  1  0.29101918  0.39723549  0.07087743  1
  H  H245  1  0.45316083  0.35416370  0.23052034  1
  C  C246  1  0.43054360  0.43202668  0.29727274  1
  O  O247  1  0.36359052  0.30363556  0.30683655  1
  H  H248  1  0.36274946  0.39488423  0.33829329  1
  C  C249  1  0.38847568  0.49028817  0.16832670  1
  C  C250  1  0.31263566  0.44677774  0.29801621  1
  C  C251  1  0.38035973  0.45617549  0.07398846  1
  C  C252  1  0.32733314  0.38202298  0.14726949  1
  H  H253  1  0.31948997  0.46730824  0.38945770  1
  C  C254  1  0.27096253  0.43890261  0.09372784  1
  C  C255  1  0.46964412  0.34446450  0.32499717  1
  H  H256  1  0.31709263  0.27551907  0.01521203  1
  H  H257  1  0.35294935  0.14373892  0.83921829  1
  H  H258  1  0.40756879  0.18477008  0.75796420  1
  O  O259  1  0.28421667  0.12507077  0.69701213  1
  C  C260  1  0.34228656  0.16568043  0.91755967  1
  H  H261  1  0.26822613  0.17691138  0.90154615  1
  C  C262  1  0.38833813  0.20772326  0.70172054  1
  C  C263  1  0.33987632  0.21424943  0.91180071  1
  C  C264  1  0.39694459  0.21896850  0.56679682  1
  C  C265  1  0.35562698  0.23143749  0.77503631  1
  H  H266  1  0.41804933  0.19801140  0.50252221  1
  O  O267  1  0.46662592  0.03672720  0.74861395  1
  N  N268  1  0.34523067  0.10302993  0.54469949  1
  N  N269  1  0.30852943  0.11751511  0.54050072  1
  H  H270  1  0.26726549  0.22496074  0.59007149  1
  C  C271  1  0.48834974  0.04747680  0.84661143  1
  C  C272  1  0.49429700  0.02036591  0.97547693  1
  N  N273  1  0.45328456  0.24961541  0.95497375  1
  C  C274  1  0.37436474  0.25509826  0.50837858  1
  C  C275  1  0.49495511  0.35971578  0.56113958  1
  H  H276  1  0.27975079  0.38163189  0.97830844  1
  C  C277  1  0.36434642  0.33942044  0.95734970  1
  H  H278  1  0.32942409  0.31046644  0.53121242  1
  O  O279  1  0.30387456  0.49286952  0.75073182  1
  C  C280  1  0.44614898  0.32152426  0.82881544  1
  H  H281  1  0.31211424  0.28944526  0.76935610  1
  C  C282  1  0.34644888  0.28219203  0.58406443  1
  H  H283  1  0.40344094  0.34572626  0.61893602  1
  H  H284  1  0.46371637  0.39704816  0.98536790  1
  C  C285  1  0.43574452  0.36942006  0.80180531  1
  C  C286  1  0.41150238  0.37688543  0.68330796  1
  C  C287  1  0.33585810  0.27081722  0.71301461  1
  H  H288  1  0.45120550  0.47450596  0.90207285  1
  C  C289  1  0.43699217  0.44678497  0.84268679  1
  H  H290  1  0.34889871  0.44296073  0.88348853  1
  C  C291  1  0.44623674  0.40471995  0.88959361  1
  O  O292  1  0.46128427  0.30790683  0.94494994  1
  H  H293  1  0.35815600  0.36543540  0.88678284  1
  C  C294  1  0.35354617  0.46613509  0.96640925  1
  O  O295  1  0.43952398  0.29543550  0.73973599  1
  C  C296  1  0.40917333  0.45734309  0.72783700  1
  C  C297  1  0.39467243  0.41798172  0.65059856  1
  H  H298  1  0.37973436  0.30811446  0.91159726  1
  H  H299  1  0.37737826  0.42408070  0.55989546  1
  H  H300  1  0.49375844  0.49248874  0.70443434  1
  H  H301  1  0.43023463  0.54938770  0.33180917  1
  H  H302  1  0.36852934  0.55724358  0.24345838  1
  O  O303  1  0.48637336  0.62365414  0.12997692  1
  C  C304  1  0.41077838  0.67874979  0.12507786  1
  C  C305  1  0.36514202  0.53185547  0.16565989  1
  C  C306  1  0.33741183  0.68963345  0.03402476  1
  C  C307  1  0.29379962  0.71509456  0.03486667  1
  C  C308  1  0.41303540  0.63708559  0.06113650  1
  C  C309  1  0.45455513  0.61045439  0.06180727  1
  C  C310  1  0.31317912  0.72295356  0.34538321  1
  O  O311  1  0.45852191  0.57382439  0.00297365  1
  H  H312  1  0.48972293  0.58750988  0.37634444  1
  C  C313  1  0.26108662  0.50725863  0.26526574  1
  C  C314  1  0.43845394  0.51309404  0.35268495  1
  H  H315  1  0.25249820  0.66029355  0.12692424  1
  C  C316  1  0.37202893  0.70377417  0.11724265  1
  C  C317  1  0.32525001  0.68226271  0.40551776  1
  C  C318  1  0.39359141  0.72201885  0.48711235  1
  C  C319  1  0.36665576  0.68365373  0.46870913  1
  C  C320  1  0.25429651  0.69432875  0.08669583  1
  H  H321  1  0.28207260  0.72533853  0.29717462  1
  H  H322  1  0.44074166  0.69106503  0.17478256  1
  C  C323  1  0.33656627  0.54088044  0.06170501  1
  H  H324  1  0.31515732  0.57161737  0.04980932  1
  H  H325  1  0.30360299  0.65201237  0.39775704  1
  C  C326  1  0.46677535  0.50229713  0.45394661  1
  O  O327  1  0.27300840  0.52684559  0.36824593  1
  H  H328  1  0.36913471  0.73492569  0.17111770  1
  C  C329  1  0.49966836  0.58158294  0.48220848  1
  H  H330  1  0.27110901  0.99810657  0.03002984  1
  C  C331  1  0.32321915  0.80801766  0.32221508  1
  O  O332  1  0.48166818  0.75125126  0.36780425  1
  N  N333  1  0.41991679  0.85187332  0.02246381  1
  C  C334  1  0.32988488  0.88916453  0.33413425  1
  C  C335  1  0.38148518  0.76071062  0.42352168  1
  H  H336  1  0.26323617  0.77974551  0.22475166  1
  C  C337  1  0.26168876  0.85303088  0.24714553  1
  H  H338  1  0.40332796  0.78831896  0.43019315  1
  H  H339  1  0.28555041  0.96404328  0.42352850  1
  H  H340  1  0.44801602  0.99685108  0.34910734  1
  C  C341  1  0.41304604  0.98796991  0.35421287  1
  C  C342  1  0.39702472  0.94491069  0.34491947  1
  C  C343  1  0.34825813  0.84655622  0.36128326  1
  C  C344  1  0.28867774  0.89181592  0.27055416  1
  N  N345  1  0.44904256  0.82872798  0.23520233  1
  H  H346  1  0.45863187  0.91704652  0.09243682  1
  H  H347  1  0.41940802  0.91646616  0.32687222  1
  C  C348  1  0.47581026  0.94902670  0.08994531  1
  H  H349  1  0.27602319  0.92540959  0.25467782  1
  O  O350  1  0.38553711  0.93286509  0.05601358  1
  C  C351  1  0.33933104  0.76307643  0.35723383  1
  H  H352  1  0.38020990  0.84195650  0.40704359  1
  C  C353  1  0.34640301  0.95159954  0.04417433  1
  C  C354  1  0.28085817  0.81018297  0.26100335  1
  C  C355  1  0.43204190  0.84093287  0.13952831  1
  C  C356  1  0.35047901  0.93580544  0.36274101  1
  H  H357  1  0.36533465  0.86044972  0.09939319  1
  O  O358  1  0.49141516  0.79382839  0.19138270  1
  C  C359  1  0.32057679  0.96983341  0.39598914  1
  C  C360  1  0.38286042  0.87970377  0.02353994  1
  O  O361  1  0.31287524  0.93078483  0.02516974  1
  C  C362  1  0.30152850  0.69706901  0.71897181  1
  O  O363  1  0.29361012  0.56198005  0.82604854  1
  H  H364  1  0.30500187  0.62606860  0.68288190  1
  C  C365  1  0.28559926  0.65260311  0.72659335  1
  C  C366  1  0.30649744  0.51950681  0.83913589  1
  C  C367  1  0.39503217  0.54459758  0.63680774  1
  H  H368  1  0.42421272  0.56650921  0.66373186  1
  C  C369  1  0.36014515  0.56003289  0.54993636  1
  C  C370  1  0.48817572  0.53959092  0.53676585  1
  C  C371  1  0.40063066  0.50162847  0.67764090  1
  C  C372  1  0.31355185  0.73616650  0.70840239  1
  H  H373  1  0.33080398  0.53765313  0.52354351  1
  C  C374  1  0.33312346  0.50856980  0.95974380  1
  H  H375  1  0.31181433  0.63383679  0.90655715  1
  C  C376  1  0.34051935  0.64813765  0.96021230  1
  H  H377  1  0.38366070  0.58904157  0.93174334  1
  H  H378  1  0.42416678  0.72056283  0.54252906  1
  C  C379  1  0.49940796  0.52776136  0.67188668  1
  C  C380  1  0.37921676  0.62283061  0.97645204  1
  O  O381  1  0.34969421  0.59668739  0.50282917  1
  O  O382  1  0.40961049  0.63749066  0.59313954  1
  C  C383  1  0.37838130  0.64024103  0.52639904  1
  C  C384  1  0.25212703  0.78036612  0.95900239  1
  H  H385  1  0.45091216  0.96998619  0.89243865  1
  C  C386  1  0.37827290  0.91337828  0.69572754  1
  C  C387  1  0.37617271  0.78778054  0.72509176  1
  H  H388  1  0.30693674  0.85374394  0.90236102  1
  H  H389  1  0.39717340  0.76182164  0.77350960  1
  O  O390  1  0.34423008  0.94761188  0.66452659  1
  C  C391  1  0.39025203  0.83262627  0.72840796  1
  C  C392  1  0.31706661  0.86031797  0.64774386  1
  H  H393  1  0.29328239  0.88776041  0.61682728  1
  C  C394  1  0.27351127  0.85893219  0.86339630  1
  H  H395  1  0.28883821  0.92836921  0.80896869  1
  C  C396  1  0.47225314  0.97726067  0.98145817  1
  H  H397  1  0.26666769  0.80826377  0.63485303  1
  H  H398  1  0.36723797  0.87461614  0.92622396  1
  H  H399  1  0.32312927  0.77008456  0.93262674  1
  C  C400  1  0.29234144  0.75699722  0.97027881  1
  C  C401  1  0.30170858  0.81726631  0.65116514  1
  O  O402  1  0.41488210  0.92263042  0.71684259  1
  H  H403  1  0.36206965  0.96985875  0.61394606  1
  C  C404  1  0.36114357  0.86736184  0.68953599  1
  H  H405  1  0.42341865  0.84442974  0.75155011  1
  C  C406  1  0.33140462  0.78058141  0.69300772  1
  C  C407  1  0.26369958  0.89950348  0.81187788  1
  O  O408  1  0.49719007  0.82772509  0.76330404  1
  O  O409  1  0.66679676  0.22826362  0.34622449  1
  H  H410  1  0.68038605  0.08436955  0.22901689  1
  C  C411  1  0.71562345  0.02764129  0.13738523  1
  C  C412  1  0.51316412  0.23822825  0.46297279  1
  O  O413  1  0.50755380  0.21437320  0.36617990  1
  H  H414  1  0.53606360  0.02274758  0.29835418  1
  H  H415  1  0.52393793  0.07220099  0.11173980  1
  H  H416  1  0.66566136  0.02024307  0.41362051  1
  C  C417  1  0.70911694  0.06144432  0.23349346  1
  C  C418  1  0.51140837  0.03588226  0.09691020  1
  C  C419  1  0.69571653  0.20541540  0.39890158  1
  O  O420  1  0.73466073  0.21227573  0.37031243  1
  C  C421  1  0.73982232  0.06547337  0.34236106  1
  C  C422  1  0.51713909  0.01057764  0.21166847  1
  N  N423  1  0.60857537  0.24110009  0.04461808  1
  H  H424  1  0.73509989  0.09281623  0.42512387  1
  C  C425  1  0.68718689  0.03075293  0.00720536  1
  N  N426  1  0.57239571  0.22943934  0.01402831  1
  H  H427  1  0.61431832  0.17846788  0.47930793  1
  N  N428  1  0.74944568  0.33013381  0.01819356  1
  Zn  Zn429  1  0.65414260  0.35882046  0.14358368  1
  N  N430  1  0.61331266  0.41158379  0.05185020  1
  C  C431  1  0.58368031  0.46254676  0.39941136  1
  C  C432  1  0.62074413  0.45184661  0.07865796  1
  O  O433  1  0.58463698  0.42360842  0.36800630  1
  C  C434  1  0.62415379  0.31981942  0.39517534  1
  C  C435  1  0.71983411  0.42240810  0.25070658  1
  C  C436  1  0.50403648  0.28747028  0.46359495  1
  N  N437  1  0.61438008  0.33151595  0.28940030  1
  N  N438  1  0.69244057  0.30459549  0.12662059  1
  N  N439  1  0.68837506  0.41697881  0.17469571  1
  O  O440  1  0.58797927  0.49777131  0.31194403  1
  N  N441  1  0.65398163  0.46328480  0.15561954  1
  C  C442  1  0.73588214  0.30423659  0.12062345  1
  H  H443  1  0.74980392  0.25754394  0.27301189  1
  N  N444  1  0.58784746  0.48695515  0.06441061  1
  H  H445  1  0.55630809  0.47612233  0.09657972  1
  N  N446  1  0.65254874  0.30870120  0.48799316  1
  C  C447  1  0.66071047  0.07150627  0.80799564  1
  C  C448  1  0.66939234  0.10744215  0.70126499  1
  C  C449  1  0.68592045  0.07144564  0.93122642  1
  N  N450  1  0.52466953  0.16104778  0.73267461  1
  H  H451  1  0.59929939  0.12092761  0.67137881  1
  C  C452  1  0.63306986  0.12775221  0.63608345  1
  H  H453  1  0.51160386  0.12770537  0.76054559  1
  N  N454  1  0.51276357  0.17170439  0.62036347  1
  C  C455  1  0.63094588  0.03698403  0.76902769  1
  H  H456  1  0.60849480  0.03812516  0.68299455  1
  H  H457  1  0.70259072  0.10247649  0.96093922  1
  C  C458  1  0.71337062  0.11599520  0.65963612  1
  H  H459  1  0.72968141  0.01945685  0.78590248  1
  C  C460  1  0.72094505  0.15118830  0.56994691  1
  O  O461  1  0.52642174  0.22629564  0.58108936  1
  H  H462  1  0.73848724  0.09797310  0.71205716  1
  H  H463  1  0.72652986  0.02072675  0.58632964  1
  C  C464  1  0.64012566  0.15895612  0.53245683  1
  C  C465  1  0.63114358  0.00004397  0.85797335  1
  O  O466  1  0.50730249  0.08484873  0.84589309  1
  C  C467  1  0.68427011  0.16932757  0.50708449  1
  H  H468  1  0.51845209  0.25012037  0.84369750  1
  N  N469  1  0.66466690  0.39292213  0.77009139  1
  C  C470  1  0.58120067  0.47926828  0.54148488  1
  N  N471  1  0.55046750  0.25964037  0.86840125  1
  N  N472  1  0.69770799  0.40533626  0.57935774  1
  Zn  Zn473  1  0.70718036  0.33788310  0.56756187  1
  Zn  Zn474  1  0.65552554  0.28086770  0.97588596  1
  N  N475  1  0.65041523  0.34544323  0.95808787  1
  C  C476  1  0.55899413  0.30058245  0.84739852  1
  N  N477  1  0.68769017  0.25561551  0.81823949  1
  C  C478  1  0.50937067  0.31525713  0.57415309  1
  H  H479  1  0.72142066  0.46525583  0.97929769  1
  H  H480  1  0.50639996  0.44823445  0.54707363  1
  N  N481  1  0.66603032  0.47055898  0.69289216  1
  C  C482  1  0.57363809  0.45262060  0.65892465  1
  H  H483  1  0.50002041  0.38320318  0.63969457  1
  C  C484  1  0.67699710  0.42403614  0.67878838  1
  H  H485  1  0.65902352  0.48625296  0.60338113  1
  H  H486  1  0.52280059  0.30114757  0.66523604  1
  N  N487  1  0.74661773  0.46665224  0.91137447  1
  C  C488  1  0.72421513  0.26649760  0.76782311  1
  H  H489  1  0.64082145  0.47722735  0.75396948  1
  N  N490  1  0.55899082  0.33759562  0.81496656  1
  N  N491  1  0.72988775  0.31060602  0.73757591  1
  H  H492  1  0.63928265  0.29573968  0.57153677  1
  Zn  Zn493  1  0.70853727  0.36021956  0.87804847  1
  Zn  Zn494  1  0.60481836  0.38529053  0.86380456  1
  N  N495  1  0.56854657  0.43279896  0.75463324  1
  C  C496  1  0.69858191  0.65363114  0.35559439  1
  N  N497  1  0.70648604  0.52773199  0.17029102  1
  H  H498  1  0.72159098  0.55990580  0.12443328  1
  H  H499  1  0.64251470  0.69693708  0.35474865  1
  O  O500  1  0.74107804  0.59764006  0.04203599  1
  H  H501  1  0.55172942  0.54186910  0.36975467  1
  C  C502  1  0.58626874  0.54309702  0.41374610  1
  C  C503  1  0.60941136  0.58545714  0.37845425  1
  N  N504  1  0.52724491  0.57899583  0.11968991  1
  N  N505  1  0.67445599  0.51469403  0.10897033  1
  C  C506  1  0.65625173  0.66194317  0.36542848  1
  C  C507  1  0.62909602  0.62005753  0.36620383  1
  C  C508  1  0.74288249  0.63965843  0.34516584  1
  H  H509  1  0.59012887  0.51318966  0.13052076  1
  N  N510  1  0.51186002  0.55084732  0.04904713  1
  H  H511  1  0.72807776  0.57614878  0.46721006  1
  H  H512  1  0.73350877  0.66944248  0.00253227  1
  C  C513  1  0.56499650  0.75938185  0.45396374  1
  C  C514  1  0.50101038  0.96469728  0.20922771  1
  C  C515  1  0.60883666  0.76397453  0.49099473  1
  C  C516  1  0.50494327  0.93809514  0.32795926  1
  C  C517  1  0.50823162  0.91842067  0.45321142  1
  C  C518  1  0.68618139  0.78795773  0.43540664  1
  C  C519  1  0.51634819  0.87060798  0.46285007  1
  O  O520  1  0.61110946  0.98005321  0.27640027  1
  H  H521  1  0.56184960  0.96083672  0.01075576  1
  H  H522  1  0.51524700  0.85176415  0.36145118  1
  H  H523  1  0.74914361  0.96438516  0.07946975  1
  C  C524  1  0.50544363  0.77254957  0.29744839  1
  C  C525  1  0.74891667  0.99316337  0.14506986  1
  C  C526  1  0.63823979  0.78541223  0.39762481  1
  C  C527  1  0.57831456  0.80517955  0.24248484  1
  C  C528  1  0.55290856  0.77899984  0.33015918  1
  C  C529  1  0.66044050  0.94626895  0.42570503  1
  C  C530  1  0.71894056  0.82041864  0.40399843  1
  O  O531  1  0.61316618  0.90336991  0.27004266  1
  H  H532  1  0.56654628  0.82127240  0.15173583  1
  H  H533  1  0.64467939  0.82499479  0.21725565  1
  H  H534  1  0.71483328  0.84650185  0.32354615  1
  C  C535  1  0.62214642  0.80572634  0.27710834  1
  C  C536  1  0.62649802  0.94620806  0.32009941  1
  H  H537  1  0.58424358  0.91192700  0.22985335  1
  C  C538  1  0.67820208  0.98887988  0.45695893  1
  H  H539  1  0.65811951  0.96365637  0.03118703  1
  H  H540  1  0.65425155  0.87181210  0.46116304  1
  C  C541  1  0.67268331  0.90376348  0.48459011  1
  H  H542  1  0.58727689  0.54255530  0.64860322  1
  C  C543  1  0.55444282  0.63842711  0.77049336  1
  O  O544  1  0.56405834  0.67212479  0.71247472  1
  H  H545  1  0.67048473  0.72741493  0.54532474  1
  C  C546  1  0.74576770  0.70904391  0.81101392  1
  H  H547  1  0.52963325  0.55264183  0.85419355  1
  C  C548  1  0.52799024  0.60260080  0.69993630  1
  C  C549  1  0.51726309  0.56072811  0.75532808  1
  C  C550  1  0.58662940  0.52461743  0.55270467  1
  H  H551  1  0.73263833  0.74221875  0.85469160  1
  C  C552  1  0.73730398  0.74545610  0.58787333  1
  O  O553  1  0.57049851  0.63012670  0.90458282  1
  H  H554  1  0.55442317  0.60507078  0.93731879  1
  H  H555  1  0.53235761  0.64647769  0.52373998  1
  C  C556  1  0.74872387  0.67340097  0.90450606  1
  C  C557  1  0.52004396  0.61293687  0.56190725  1
  H  H558  1  0.62120761  0.74855116  0.58182134  1
  H  H559  1  0.54147745  0.74400547  0.52355266  1
  C  C560  1  0.69590823  0.75183810  0.52652788  1
  C  C561  1  0.52013977  0.85103820  0.69897626  1
  C  C562  1  0.71088432  0.98901285  0.55389701  1
  C  C563  1  0.54825282  0.88881776  0.73930751  1
  H  H564  1  0.57920529  0.89723010  0.54227987  1
  H  H565  1  0.71488228  0.87644588  0.63949345  1
  C  C566  1  0.56790668  0.94526801  0.91035119  1
  H  H567  1  0.50414007  0.93970072  0.54696823  1
  C  C568  1  0.60621479  0.94233733  0.68850359  1
  C  C569  1  0.59880397  0.96260558  0.81560302  1
  C  C570  1  0.72380713  0.94872255  0.62406018  1
  C  C571  1  0.70322639  0.90754722  0.59079657  1
  O  O572  1  0.52234984  0.84001377  0.54555530  1
  H  H573  1  0.63481086  0.95435326  0.62316848  1
  C  C574  1  0.57871548  0.90733646  0.64702231  1
  C  C575  1  0.66046336  0.99358081  0.96742769  1
  H  H576  1  0.52327544  0.89181482  0.94339124  1
  C  C577  1  0.54553620  0.90685752  0.86995328  1
  C  C578  1  0.80474039  0.04234023  0.45967595  1
  H  H579  1  0.79058052  0.13926275  0.17166131  1
  H  H580  1  0.78721916  0.05902456  0.09761344  1
  C  C581  1  0.77432401  0.03568702  0.33674374  1
  O  O582  1  0.81652422  0.22298152  0.14734198  1
  C  C583  1  0.79951607  0.12956148  0.06571312  1
  N  N584  1  0.89819829  0.02986344  0.13549470  1
  C  C585  1  0.79682982  0.08409107  0.02576534  1
  C  C586  1  0.78035636  0.00148987  0.24433484  1
  C  C587  1  0.81978183  0.21364442  0.02663711  1
  O  O588  1  0.83382380  0.01363455  0.48734132  1
  H  H589  1  0.79716989  0.27454966  0.19091216  1
  Zn  Zn590  1  0.97194986  0.47263099  0.46655566  1
  N  N591  1  0.75138641  0.41645856  0.30702040  1
  N  N592  1  0.80356170  0.33201515  0.44069680  1
  H  H593  1  0.78525904  0.32567820  0.35697120  1
  N  N594  1  0.97019704  0.42168163  0.19601758  1
  N  N595  1  0.87516006  0.33605018  0.22260475  1
  H  H596  1  0.92161640  0.33977069  0.40519952  1
  N  N597  1  0.87033099  0.39748652  0.46682950  1
  Zn  Zn598  1  0.80972619  0.35546525  0.00927029  1
  C  C599  1  0.83281763  0.47463386  0.10661530  1
  N  N600  1  0.90384636  0.36354702  0.35130054  1
  N  N601  1  0.76417983  0.28113272  0.20927396  1
  H  H602  1  0.82532931  0.35542619  0.40261786  1
  Zn  Zn603  1  0.92582825  0.48405120  0.07302087  1
  N  N604  1  0.86297713  0.46348737  0.04759223  1
  N  N605  1  0.95889757  0.45592717  0.25929863  1
  N  N606  1  0.84822837  0.36286123  0.18262034  1
  H  H607  1  0.92791189  0.38326238  0.31101526  1
  N  N608  1  0.80302105  0.49363964  0.19292398  1
  H  H609  1  0.77619850  0.47726100  0.22242644  1
  C  C610  1  0.80511296  0.07284415  0.89119515  1
  C  C611  1  0.81776037  0.10755071  0.80259872  1
  C  C612  1  0.82152432  0.15330757  0.84550139  1
  H  H613  1  0.83562479  0.17992197  0.78383366  1
  H  H614  1  0.82505523  0.09730598  0.69973061  1
  O  O615  1  0.82409650  0.24111846  0.93708372  1
  C  C616  1  0.81251855  0.16365118  0.97939059  1
  H  H617  1  0.86796598  0.00540902  0.87923893  1
  O  O618  1  0.80154561  0.07641329  0.52450778  1
  H  H619  1  0.75399201  0.20343847  0.80658755  1
  N  N620  1  0.75457375  0.23010417  0.74677845  1
  C  C621  1  0.79962908  0.02185634  0.84412703  1
  H  H622  1  0.75467674  0.16146373  0.54039083  1
  H  H623  1  0.75566957  0.21605273  0.65162810  1
  C  C624  1  0.76223224  0.00325616  0.78623979  1
  N  N625  1  0.92919799  0.34986412  0.87973276  1
  H  H626  1  0.94650846  0.36774559  0.81359182  1
  H  H627  1  0.81457428  0.26731726  0.77223540  1
  H  H628  1  0.95025691  0.32517150  0.90753175  1
  N  N629  1  0.90198983  0.42640193  0.66497287  1
  N  N630  1  0.93850858  0.47192591  0.65649440  1
  H  H631  1  0.82796787  0.28118116  0.60862753  1
  N  N632  1  0.83211168  0.28778760  0.71054237  1
  C  C633  1  0.88729245  0.32972766  0.83234422  1
  N  N634  1  0.88477913  0.30061600  0.75445503  1
  N  N635  1  0.85154032  0.35891189  0.85824814  1
  Zn  Zn636  1  0.75735417  0.41947909  0.52331771  1
  C  C637  1  0.94481595  0.48828468  0.77195984  1
  N  N638  1  0.78465652  0.48086957  0.56971855  1
  Zn  Zn639  1  0.86981620  0.42660440  0.85983317  1
  N  N640  1  0.76984500  0.35689640  0.54811320  1
  N  N641  1  0.81102694  0.44175065  0.78310707  1
  N  N642  1  0.77007508  0.39077978  0.87263028  1
  C  C643  1  0.77460784  0.43523178  0.85246199  1
  Zn  Zn644  1  0.79116461  0.34351696  0.72018249  1
  N  N645  1  0.92503944  0.46751960  0.87189293  1
  C  C646  1  0.88991587  0.41154655  0.55446226  1
  N  N647  1  0.80696835  0.49006175  0.66440955  1
  H  H648  1  0.84560339  0.67261027  0.23711336  1
  C  C649  1  0.82972835  0.60729798  0.33499104  1
  O  O650  1  0.90205318  0.60574307  0.25967325  1
  N  N651  1  0.88011182  0.61362357  0.09240695  1
  C  C652  1  0.81974927  0.64923186  0.27592876  1
  C  C653  1  0.87247725  0.58512303  0.32743985  1
  O  O654  1  0.87732288  0.54848985  0.38015006  1
  C  C655  1  0.79594553  0.58118522  0.40215876  1
  C  C656  1  0.92048071  0.71575164  0.05273355  1
  C  C657  1  0.90839641  0.72301138  0.18491567  1
  C  C658  1  0.77799403  0.66589348  0.28690677  1
  H  H659  1  0.81435560  0.51433697  0.26836829  1
  C  C660  1  0.89978214  0.72864343  0.30477054  1
  C  C661  1  0.88836385  0.73950527  0.43975444  1
  N  N662  1  0.99659227  0.57879712  0.47576197  1
  H  H663  1  0.97287451  0.63355097  0.39467827  1
  H  H664  1  0.80744164  0.55064034  0.44907156  1
  H  H665  1  0.77426611  0.70198234  0.25066031  1
  C  C666  1  0.75345671  0.59611269  0.41086736  1
  N  N667  1  0.96566057  0.54662256  0.04092216  1
  C  C668  1  0.89723986  0.63366359  0.01040657  1
  O  O669  1  0.78904204  0.76581102  0.15648172  1
  C  C670  1  0.79728386  0.79395487  0.07146419  1
  C  C671  1  0.80096201  0.88998375  0.43800563  1
  N  N672  1  0.89389210  0.98908830  0.12971144  1
  O  O673  1  0.90483443  0.96346295  0.28592275  1
  C  C674  1  0.83448872  0.91772060  0.39157522  1
  H  H675  1  0.90048631  0.83297326  0.28409425  1
  C  C676  1  0.80121590  0.84315646  0.42373993  1
  H  H677  1  0.80670777  0.97660499  0.25349868  1
  C  C678  1  0.76038877  0.81565713  0.46321769  1
  H  H679  1  0.77171340  0.90311646  0.48409803  1
  C  C680  1  0.86887281  0.89458683  0.33319611  1
  C  C681  1  0.90906921  0.92054684  0.28064832  1
  C  C682  1  0.83666493  0.81897922  0.36820547  1
  H  H683  1  0.83682160  0.78276804  0.34483504  1
  O  O684  1  0.93789162  0.90267003  0.21955454  1
  H  H685  1  0.83377593  0.95520755  0.40021632  1
  C  C686  1  0.87072524  0.84730446  0.32346131  1
  O  O687  1  0.78893475  0.83433882  0.09339549  1
  H  H688  1  0.93047429  0.57218769  0.86444253  1
  O  O689  1  0.91953621  0.58004741  0.77739976  1
  C  C690  1  0.92919707  0.63036402  0.78081153  1
  O  O691  1  0.95015169  0.64364983  0.68912228  1
  H  H692  1  0.80195736  0.59965444  0.70018471  1
  H  H693  1  0.85052358  0.68266713  0.75800090  1
  N  N694  1  0.98695006  0.55811035  0.94409353  1
  H  H695  1  0.79086424  0.66791582  0.52094267  1
  C  C696  1  0.84792232  0.71860325  0.78484956  1
  C  C697  1  0.91810223  0.65645729  0.90116415  1
  C  C698  1  0.83076856  0.73330106  0.90933847  1
  H  H699  1  0.81364702  0.70790636  0.96696790  1
  C  C700  1  0.93180360  0.70175995  0.92617977  1
  H  H701  1  0.94609766  0.72628955  0.84748330  1
  C  C702  1  0.77992472  0.66753886  0.62222545  1
  C  C703  1  0.78546408  0.63237584  0.71408553  1
  H  H704  1  0.75794101  0.50161029  0.91375150  1
  C  C705  1  0.87828933  0.74275178  0.55740052  1
  O  O706  1  0.76770543  0.55344909  0.89186892  1
  C  C707  1  0.76637172  0.63518734  0.84462820  1
  C  C708  1  0.75741503  0.70761502  0.67262784  1
  H  H709  1  0.99950096  0.53181833  0.71753652  1
  C  C710  1  0.76061266  0.59304474  0.93178524  1
  N  N711  1  0.98793029  0.51583311  0.80352446  1
  O  O712  1  0.99973839  0.82403857  0.58849260  1
  H  H713  1  0.88394992  0.90479621  0.98249159  1
  H  H714  1  0.94771646  0.85242743  0.93678167  1
  C  C715  1  0.94417311  0.85917032  0.72443507  1
  C  C716  1  0.76721363  0.77905613  0.55045108  1
  H  H717  1  0.83012560  0.85041707  0.88473460  1
  C  C718  1  0.82015618  0.77879672  0.93564165  1
  C  C719  1  0.89291664  0.91295043  0.63621137  1
  C  C720  1  0.85975997  0.75389624  0.69222269  1
  H  H721  1  0.93839333  0.87511226  0.51201854  1
  C  C722  1  0.98125401  0.82552419  0.69972951  1
  C  C723  1  0.89503268  0.89840384  0.87860505  1
  C  C724  1  0.83411189  0.81366833  0.85424139  1
  C  C725  1  0.79545133  0.93132424  0.72783389  1
  H  H726  1  0.80178207  0.77626112  0.58996881  1
  H  H727  1  0.86682973  0.82640142  0.66182426  1
  C  C728  1  0.87447512  0.91838949  0.76697006  1
  C  C729  1  0.83353243  0.94868248  0.78630160  1
  C  C730  1  0.83641182  0.99237133  0.84288990  1
  H  H731  1  0.87821498  0.93196674  0.55141257  1
  C  C732  1  0.85380815  0.80053427  0.73481969  1
  H  H733  1  0.79561796  0.89727873  0.68699998  1
  C  C734  1  0.92921853  0.86756916  0.85485315  1
  C  C735  1  0.92577134  0.88071363  0.61557340  1
  C  C736  1  0.76032101  0.96030077  0.71980677  1
  O  O737  1  0.99308795  0.80114888  0.79494821  1
