# generated using pymatgen
data_Zn2H3C9O7
_symmetry_space_group_name_H-M   'P 1'
_cell_length_a   20.33560847
_cell_length_b   16.77376452
_cell_length_c   15.81757874
_cell_angle_alpha   90.00000000
_cell_angle_beta   90.00000000
_cell_angle_gamma   90.00000000
_symmetry_Int_Tables_number   1
_chemical_formula_structural   Zn2H3C9O7
_chemical_formula_sum   'Zn32 H48 C144 O112'
_cell_volume   5395.45057760
_cell_formula_units_Z   16
loop_
 _symmetry_equiv_pos_site_id
 _symmetry_equiv_pos_as_xyz
  1  'x, y, z'
loop_
 _atom_site_type_symbol
 _atom_site_label
 _atom_site_symmetry_multiplicity
 _atom_site_fract_x
 _atom_site_fract_y
 _atom_site_fract_z
 _atom_site_occupancy
  O  O0  1  0.05866532  0.19434301  0.29800601  1
  C  C1  1  0.11261017  0.18785564  0.05200020  1
  C  C2  1  0.09982788  0.29858167  0.38280579  1
  C  C3  1  0.10762435  0.21513799  0.33870336  1
  O  O4  1  0.14836740  0.24430304  0.07832578  1
  O  O5  1  0.15867139  0.17284467  0.34478872  1
  H  H6  1  0.23481161  0.17146158  0.03119946  1
  C  C7  1  0.05502951  0.46596707  0.42711532  1
  O  O8  1  0.04866517  0.19971166  0.05752947  1
  Zn  Zn9  1  0.01341927  0.22259340  0.17578243  1
  C  C10  1  0.03821565  0.39806744  0.48321080  1
  C  C11  1  0.09590690  0.45607048  0.35036632  1
  C  C12  1  0.06471439  0.31218048  0.46613720  1
  H  H13  1  0.15641725  0.36196866  0.28048028  1
  C  C14  1  0.11692919  0.37052390  0.32842948  1
  C  C15  1  0.02761112  0.41153544  0.16120538  1
  Zn  Zn16  1  0.16593353  0.07213730  0.42668427  1
  O  O17  1  0.08341529  0.41138896  0.12792306  1
  Zn  Zn18  1  0.16733034  0.29784346  0.48290519  1
  C  C19  1  0.00589265  0.48873315  0.19926163  1
  O  O20  1  0.06466039  0.06232822  0.47220114  1
  Zn  Zn21  1  0.01526982  0.37381361  0.35680330  1
  C  C22  1  0.14034278  0.12076914  0.00219840  1
  Zn  Zn23  1  0.12029953  0.35858363  0.01086995  1
  C  C24  1  0.17608691  0.36331297  0.78010710  1
  H  H25  1  0.02186194  0.41045540  0.54814682  1
  C  C26  1  0.10167371  0.06040050  0.96029839  1
  C  C27  1  0.14369203  0.47968991  0.69511745  1
  C  C28  1  0.02592580  0.04382454  0.95024465  1
  H  H29  1  0.13486773  0.43192392  0.64734289  1
  O  O30  1  0.20093641  0.41741495  0.94821104  1
  C  C31  1  0.16733758  0.45587548  0.77470183  1
  O  O32  1  0.22935121  0.32898402  0.77154949  1
  O  O33  1  0.05367729  0.31949520  0.93170682  1
  Zn  Zn34  1  0.11164992  0.11632450  0.62059446  1
  O  O35  1  0.06730809  0.22240317  0.58421690  1
  Zn  Zn36  1  0.03836647  0.38707289  0.83095435  1
  O  O37  1  0.12541916  0.32298616  0.78649415  1
  O  O38  1  0.19196795  0.10336565  0.54700376  1
  C  C39  1  0.19297887  0.49184457  0.92913931  1
  C  C40  1  0.13624150  0.00259236  0.91871466  1
  H  H41  1  0.06698462  0.03828921  0.52535837  1
  C  C42  1  0.20579011  0.01014408  0.91479040  1
  C  C43  1  0.20964726  0.12467322  0.99885801  1
  O  O44  1  0.07365173  0.00391727  0.67100742  1
  C  C45  1  0.24444698  0.06649431  0.95605259  1
  C  C46  1  0.03637345  0.24104387  0.51998354  1
  Zn  Zn47  1  0.04863549  0.84288414  0.26390354  1
  O  O48  1  0.11321355  0.93532142  0.29668485  1
  C  C49  1  0.20209888  0.92159776  0.20204446  1
  C  C50  1  0.04657626  0.62126515  0.24103324  1
  O  O51  1  0.20546505  0.99747960  0.32737187  1
  Zn  Zn52  1  0.15156409  0.68176396  0.42888392  1
  C  C53  1  0.16546796  0.87694998  0.13955235  1
  C  C54  1  0.17292840  0.95075929  0.28054336  1
  H  H55  1  0.10262819  0.53092398  0.16965007  1
  H  H56  1  0.12113617  0.51167456  0.32732783  1
  C  C57  1  0.05474486  0.54757997  0.20001632  1
  C  C58  1  0.10951092  0.66579423  0.25161963  1
  O  O59  1  0.15802471  0.63439953  0.21368995  1
  O  O60  1  0.11848388  0.72820555  0.29427440  1
  O  O61  1  0.10218076  0.88497525  0.14102247  1
  C  C62  1  0.04632523  0.54853057  0.46078861  1
  Zn  Zn63  1  0.03396262  0.88197785  0.03610195  1
  C  C64  1  0.19797932  0.82618588  0.07881981  1
  O  O65  1  0.06603867  0.60410417  0.41442576  1
  O  O66  1  0.21401869  0.59283584  0.46039571  1
  O  O67  1  0.24591090  0.57144853  0.39351255  1
  C  C68  1  0.15402449  0.77725011  0.02137339  1
  O  O69  1  0.09280194  0.78386806  0.01327352  1
  Zn  Zn70  1  0.24430176  0.63854402  0.03810972  1
  O  O71  1  0.18422863  0.77842434  0.49681108  1
  O  O72  1  0.18285084  0.72419542  0.97778900  1
  O  O73  1  0.19131209  0.54308558  0.98661237  1
  H  H74  1  0.11457707  0.95484751  0.88418965  1
  O  O75  1  0.21415256  0.90319191  0.81639904  1
  H  H76  1  0.16528650  0.63702385  0.87469418  1
  C  C77  1  0.12445329  0.55681176  0.68161012  1
  C  C78  1  0.24312019  0.95259116  0.86284987  1
  H  H79  1  0.10257930  0.57487973  0.62083993  1
  O  O80  1  0.08367315  0.71520205  0.65820675  1
  C  C81  1  0.13727734  0.61408053  0.74255230  1
  C  C82  1  0.16008551  0.59277219  0.82173529  1
  O  O83  1  0.22094051  0.82038297  0.60337642  1
  O  O84  1  0.01279936  0.55766438  0.52543536  1
  C  C85  1  0.12197327  0.70168691  0.72206627  1
  O  O86  1  0.14606163  0.75448607  0.76400276  1
  C  C87  1  0.17469958  0.51352624  0.84026806  1
  O  O88  1  0.10980675  0.95628037  0.62754506  1
  Zn  Zn89  1  0.12257148  0.82895395  0.58402020  1
  O  O90  1  0.03388175  0.82853843  0.51603394  1
  O  O91  1  0.02417393  0.51565460  0.84375334  1
  Zn  Zn92  1  0.24007708  0.80212641  0.73651747  1
  H  H93  1  0.01148508  0.61124083  0.96316444  1
  O  O94  1  0.00401693  0.97595309  0.95570703  1
  H  H95  1  0.39097818  0.29169406  0.18588981  1
  C  C96  1  0.36529287  0.21961073  0.39034444  1
  H  H97  1  0.47523530  0.40362892  0.32803361  1
  O  O98  1  0.40239888  0.08826515  0.38874602  1
  Zn  Zn99  1  0.43553272  0.37675767  0.08744305  1
  H  H100  1  0.40947130  0.17220471  0.27583936  1
  O  O101  1  0.36209552  0.43393822  0.15933114  1
  C  C102  1  0.34529168  0.43408545  0.23632206  1
  C  C103  1  0.34952647  0.36031069  0.29024684  1
  C  C104  1  0.37679129  0.14034970  0.43236797  1
  C  C105  1  0.37615433  0.29173235  0.25515663  1
  C  C106  1  0.33072760  0.35858456  0.37608130  1
  C  C107  1  0.38542142  0.22482231  0.30576289  1
  H  H108  1  0.31084777  0.40736813  0.41747773  1
  C  C109  1  0.33893078  0.29098588  0.42228678  1
  H  H110  1  0.46116836  0.31310379  0.45665621  1
  O  O111  1  0.36458374  0.27191955  0.06974950  1
  O  O112  1  0.48876344  0.26783940  0.08392304  1
  Zn  Zn113  1  0.48943601  0.02345639  0.43782685  1
  C  C114  1  0.49997706  0.30463885  0.41005124  1
  O  O115  1  0.32759236  0.49400620  0.27235389  1
  O  O116  1  0.34333903  0.34703829  0.56711726  1
  C  C117  1  0.36920072  0.10182498  0.73213645  1
  O  O118  1  0.36118447  0.46334601  0.88902227  1
  C  C119  1  0.39594904  0.20011681  0.94602795  1
  O  O120  1  0.44584419  0.43161693  0.96649927  1
  H  H121  1  0.31219914  0.19548982  0.85455644  1
  H  H122  1  0.29932542  0.06339582  0.95328427  1
  C  C123  1  0.41653889  0.47985907  0.92037081  1
  C  C124  1  0.39895016  0.12580800  0.81378198  1
  C  C125  1  0.46176254  0.18361826  0.96384013  1
  C  C126  1  0.36496263  0.17499315  0.87184317  1
  O  O127  1  0.39809100  0.05917140  0.68099902  1
  Zn  Zn128  1  0.28887299  0.37201347  0.87736082  1
  O  O129  1  0.31389068  0.13749330  0.71376375  1
  C  C130  1  0.46221080  0.09993718  0.84040420  1
  Zn  Zn131  1  0.27775883  0.14516408  0.59374771  1
  H  H132  1  0.48217066  0.06235642  0.79282544  1
  C  C133  1  0.31682658  0.30532962  0.51760579  1
  C  C134  1  0.49521863  0.12856966  0.91127377  1
  O  O135  1  0.35170381  0.12533198  0.50139686  1
  H  H136  1  0.42941849  0.46031770  0.58039220  1
  Zn  Zn137  1  0.49435457  0.07833317  0.62913388  1
  O  O138  1  0.29843607  0.27455640  0.95833851  1
  C  C139  1  0.35000663  0.25054692  0.99736793  1
  O  O140  1  0.25869212  0.27265633  0.54184835  1
  C  C141  1  0.36911194  0.84601387  0.35996000  1
  C  C142  1  0.26614990  0.83461649  0.06949332  1
  O  O143  1  0.30332297  0.71919265  0.28012051  1
  C  C144  1  0.35939520  0.72672393  0.25787445  1
  C  C145  1  0.39503150  0.79341704  0.29749719  1
  C  C146  1  0.31385461  0.79445327  0.01057445  1
  H  H147  1  0.35246751  0.88901010  0.11620600  1
  O  O148  1  0.41259101  0.89924576  0.39438866  1
  C  C149  1  0.46287546  0.70992197  0.16944905  1
  O  O150  1  0.39702280  0.61356093  0.06478148  1
  O  O151  1  0.31239035  0.84855947  0.38720411  1
  O  O152  1  0.30442404  0.61327170  0.13689733  1
  C  C153  1  0.39982655  0.68730084  0.18958695  1
  C  C154  1  0.36913863  0.63455201  0.12721729  1
  C  C155  1  0.46210253  0.80785490  0.28075140  1
  H  H156  1  0.48526103  0.78860933  0.43228162  1
  C  C157  1  0.26971396  0.93314403  0.18876389  1
  H  H158  1  0.29911196  0.96546122  0.23329578  1
  C  C159  1  0.29918098  0.89446737  0.11950049  1
  H  H160  1  0.48712228  0.68044348  0.11567157  1
  Zn  Zn161  1  0.25525081  0.60201979  0.25579862  1
  C  C162  1  0.47987569  0.87687167  0.34454975  1
  C  C163  1  0.49857284  0.76372204  0.22111245  1
  C  C164  1  0.45087694  0.66501525  0.58626129  1
  C  C165  1  0.42314736  0.59036720  0.56729347  1
  C  C166  1  0.35727724  0.73108219  0.78482850  1
  O  O167  1  0.30530309  0.95667708  0.87000279  1
  Zn  Zn168  1  0.28074451  0.80203520  0.50623353  1
  O  O169  1  0.36439305  0.80168579  0.76053655  1
  C  C170  1  0.41311319  0.69016161  0.82561891  1
  C  C171  1  0.40555480  0.72864460  0.55543051  1
  C  C172  1  0.44041287  0.56141367  0.90042179  1
  C  C173  1  0.47836930  0.71567201  0.85428916  1
  C  C174  1  0.39891911  0.61488527  0.85902210  1
  Zn  Zn175  1  0.38694931  0.88439042  0.87175490  1
  H  H176  1  0.37744087  0.58469313  0.53171406  1
  O  O177  1  0.35438822  0.70822664  0.51507240  1
  H  H178  1  0.35074523  0.59177998  0.83904668  1
  C  C179  1  0.44749975  0.52008501  0.59833359  1
  O  O180  1  0.41856632  0.80273515  0.55956669  1
  O  O181  1  0.47558841  0.85558721  0.81780913  1
  O  O182  1  0.30074422  0.70363166  0.78058992  1
  O  O183  1  0.49717960  0.98293431  0.55191052  1
  O  O184  1  0.30379976  0.72628101  0.97938014  1
  O  O185  1  0.36756506  0.82888012  0.99315488  1
  C  C186  1  0.67489473  0.26624524  0.24908233  1
  C  C187  1  0.60893673  0.28326374  0.29768952  1
  O  O188  1  0.68804865  0.29614150  0.18056221  1
  C  C189  1  0.55966598  0.34143799  0.28588972  1
  H  H190  1  0.63769618  0.18568488  0.37738557  1
  O  O191  1  0.50617978  0.42734555  0.19005098  1
  O  O192  1  0.71072441  0.21056400  0.27636296  1
  C  C193  1  0.54523384  0.23886164  0.41855715  1
  Zn  Zn194  1  0.71257800  0.41954434  0.20318877  1
  O  O195  1  0.61019206  0.41467720  0.16736707  1
  C  C196  1  0.59928992  0.23142351  0.36514788  1
  C  C197  1  0.56059840  0.39638224  0.20944334  1
  O  O198  1  0.55951468  0.18118445  0.04259392  1
  O  O199  1  0.62190612  0.39079413  0.48500006  1
  O  O200  1  0.56705228  0.10550526  0.46988468  1
  C  C201  1  0.50710976  0.35532280  0.34210397  1
  C  C202  1  0.50440788  0.21201189  0.03453624  1
  C  C203  1  0.54258674  0.17261775  0.48554177  1
  C  C204  1  0.53715666  0.45175523  0.67697126  1
  C  C205  1  0.73157430  0.00405836  0.67484409  1
  Zn  Zn206  1  0.67224567  0.38664162  0.71883367  1
  O  O207  1  0.56215353  0.05768571  0.72396092  1
  H  H208  1  0.61426703  0.14347015  0.62304169  1
  C  C209  1  0.71466204  0.13704485  0.57218531  1
  C  C210  1  0.67069198  0.04348567  0.67133785  1
  C  C211  1  0.61577317  0.01951032  0.72748838  1
  H  H212  1  0.54706067  0.11286710  0.92388385  1
  C  C213  1  0.66215020  0.11228232  0.62224316  1
  O  O214  1  0.71412803  0.31737474  0.52511942  1
  H  H215  1  0.73479384  0.15409467  0.76019368  1
  O  O216  1  0.58537033  0.45339031  0.72892404  1
  H  H217  1  0.71201663  0.19297449  0.53432564  1
  C  C218  1  0.72781051  0.28551652  0.74251588  1
  O  O219  1  0.51302823  0.17716512  0.55292951  1
  O  O220  1  0.51325005  0.38897825  0.65214731  1
  C  C221  1  0.66746937  0.35443234  0.50606268  1
  O  O222  1  0.52161472  0.82428083  0.41688711  1
  H  H223  1  0.55134882  0.77805243  0.21190283  1
  O  O224  1  0.68107400  0.84672401  0.13295733  1
  C  C225  1  0.73902427  0.84030121  0.13191890  1
  H  H226  1  0.69650753  0.97531138  0.16872966  1
  O  O227  1  0.51183514  0.93741598  0.33480794  1
  C  C228  1  0.70582117  0.92195297  0.41798764  1
  O  O229  1  0.73373298  0.89874151  0.35844905  1
  O  O230  1  0.68143729  0.95014143  0.47702065  1
  H  H231  1  0.58296343  0.59492790  0.69910235  1
  O  O232  1  0.72328006  0.68679457  0.87495147  1
  O  O233  1  0.56468343  0.81062968  0.86828399  1
  Zn  Zn234  1  0.63034866  0.84072770  0.75697678  1
  C  C235  1  0.71266575  0.62189565  0.89273928  1
  C  C236  1  0.53608603  0.59945727  0.66320094  1
  C  C237  1  0.52192478  0.66347927  0.89625392  1
  O  O238  1  0.61095495  0.72274413  0.68952170  1
  O  O239  1  0.73459362  0.86318417  0.71882286  1
  H  H240  1  0.57601713  0.68092320  0.89635777  1
  C  C241  1  0.50789660  0.79811508  0.84716168  1
  H  H242  1  0.54229429  0.54540695  0.95346047  1
  C  C243  1  0.55790336  0.73963634  0.65854487  1
  C  C244  1  0.51298333  0.67130142  0.63210963  1
  O  O245  1  0.54609998  0.81145650  0.64884736  1
  O  O246  1  0.62238277  0.96537424  0.78155511  1
  C  C247  1  0.50483290  0.58661546  0.92158588  1
  Zn  Zn248  1  0.50280645  0.86520539  0.54160273  1
  C  C249  1  0.50344757  0.52759689  0.64804524  1
  O  O250  1  0.70282102  0.55293122  0.90440910  1
  Zn  Zn251  1  0.80119328  0.21943171  0.33870422  1
  O  O252  1  0.94980017  0.12846472  0.20552261  1
  H  H253  1  0.86955096  0.39800907  0.48679193  1
  Zn  Zn254  1  0.96795252  0.08959952  0.45023260  1
  C  C255  1  0.77997994  0.04813230  0.19707097  1
  C  C256  1  0.82124964  0.39096483  0.34812983  1
  C  C257  1  0.82416018  0.47473208  0.38981149  1
  O  O258  1  0.84412021  0.33042454  0.38132739  1
  C  C259  1  0.88709125  0.12774245  0.21159172  1
  O  O260  1  0.81728497  0.17686923  0.46494238  1
  H  H261  1  0.90263912  0.46119037  0.23659819  1
  O  O262  1  0.85156464  0.18812734  0.22482263  1
  C  C263  1  0.84868154  0.05508450  0.19553670  1
  O  O264  1  0.80404282  0.38488918  0.27465039  1
  C  C265  1  0.85432362  0.46236279  0.46993066  1
  H  H266  1  0.75154036  0.10380661  0.20124829  1
  O  O267  1  0.99500343  0.34814282  0.16033891  1
  C  C268  1  0.82889327  0.12114646  0.51595722  1
  O  O269  1  0.88499426  0.09266252  0.52737562  1
  C  C270  1  0.86590346  0.28413925  0.74998741  1
  O  O271  1  0.96728637  0.22108695  0.80133427  1
  O  O272  1  0.97101425  0.33779489  0.74007412  1
  H  H273  1  0.86510881  0.41851730  0.73259554  1
  C  C274  1  0.94071923  0.27750250  0.76273451  1
  C  C275  1  0.82815463  0.21503710  0.75820699  1
  C  C276  1  0.83678045  0.36007966  0.73266660  1
  H  H277  1  0.85482121  0.16106065  0.77673297  1
  C  C278  1  0.76788331  0.35394635  0.72754456  1
  C  C279  1  0.78242072  0.02594657  0.62321386  1
  O  O280  1  0.89712494  0.29468899  0.96179192  1
  C  C281  1  0.77233661  0.09337568  0.57031274  1
  Zn  Zn282  1  0.99956316  0.22086654  0.93704928  1
  C  C283  1  0.89295897  0.36619768  0.95079188  1
  O  O284  1  0.98924390  0.10117426  0.93342875  1
  C  C285  1  0.75905025  0.21167782  0.75846329  1
  O  O286  1  0.98184238  0.21331047  0.50320264  1
  O  O287  1  0.88855914  0.43454536  0.93726982  1
  H  H288  1  0.78522061  0.67011636  0.41443539  1
  Zn  Zn289  1  0.81560891  0.71927419  0.20465249  1
  C  C290  1  0.76658862  0.56895841  0.27939777  1
  C  C291  1  0.91180509  0.85211886  0.15566947  1
  H  H292  1  0.94327160  0.71427666  0.04559832  1
  O  O293  1  0.91680832  0.93170585  0.44915050  1
  O  O294  1  0.89326907  0.78211218  0.13958160  1
  C  C295  1  0.85844606  0.90920869  0.16825651  1
  O  O296  1  0.97909808  0.77235866  0.33171860  1
  H  H297  1  0.88081884  0.59809780  0.27748049  1
  C  C298  1  0.88570268  0.98377065  0.18293958  1
  O  O299  1  0.93598758  0.98444104  0.39575746  1
  C  C300  1  0.78675008  0.90870458  0.15703324  1
  C  C301  1  0.80861611  0.61110773  0.42013624  1
  C  C302  1  0.94672309  0.71510906  0.30315569  1
  C  C303  1  0.98099799  0.64415525  0.26819947  1
  C  C304  1  0.80021381  0.54875020  0.36177450  1
  C  C305  1  0.93119489  0.58477915  0.25883268  1
  Zn  Zn306  1  0.90598389  0.81355525  0.43396391  1
  O  O307  1  0.88494367  0.72162766  0.31648379  1
  O  O308  1  0.97374416  0.87015591  0.15526147  1
  C  C309  1  0.84531574  0.59950055  0.49490128  1
  H  H310  1  0.93726334  0.98463460  0.17970245  1
  O  O311  1  0.76777204  0.77775165  0.10205146  1
  C  C312  1  0.75008750  0.97715067  0.17127895  1
  O  O313  1  0.75051920  0.64138454  0.27000485  1
  O  O314  1  0.76167248  0.51852845  0.22035323  1
  C  C315  1  0.94312274  0.50710828  0.23483432  1
  O  O316  1  0.84296445  0.74055773  0.51348973  1
  C  C317  1  0.93881951  0.70609187  0.97497831  1
  C  C318  1  0.91934509  0.68047852  0.79732342  1
  O  O319  1  0.78301219  0.94395293  0.80428544  1
  C  C320  1  0.89811433  0.75675685  0.92637766  1
  Zn  Zn321  1  0.83678077  0.84368872  0.86390681  1
  C  C322  1  0.89068399  0.74650749  0.83966050  1
  O  O323  1  0.88852820  0.66790104  0.61300535  1
  H  H324  1  0.91541731  0.66831532  0.72927062  1
  C  C325  1  0.95858618  0.63174989  0.84764970  1
  C  C326  1  0.97045945  0.64202980  0.93350075  1
  C  C327  1  0.85889222  0.67508288  0.54261746  1
  C  C328  1  0.86413368  0.52390869  0.52782104  1
  C  C329  1  0.99171626  0.56541900  0.80117838  1
  O  O330  1  0.99046531  0.77254832  0.51925195  1
  O  O331  1  0.98339684  0.56320092  0.72486313  1
  C  C332  1  0.75216150  0.93398407  0.73639637  1
  Zn  Zn333  1  0.99905488  0.65410414  0.61741840  1
  H  H334  1  0.83106557  0.99516446  0.62043276  1
  H  H335  1  0.89186030  0.52300728  0.58724050  1
