# generated using pymatgen
data_Cu2H14C29O8
_symmetry_space_group_name_H-M   'P 1'
_cell_length_a   16.31179987
_cell_length_b   13.81971242
_cell_length_c   26.82473164
_cell_angle_alpha   90.00000000
_cell_angle_beta   90.00000000
_cell_angle_gamma   90.00000000
_symmetry_Int_Tables_number   1
_chemical_formula_structural   Cu2H14C29O8
_chemical_formula_sum   'Cu16 H112 C232 O64'
_cell_volume   6046.94858475
_cell_formula_units_Z   8
loop_
 _symmetry_equiv_pos_site_id
 _symmetry_equiv_pos_as_xyz
  1  'x, y, z'
loop_
 _atom_site_type_symbol
 _atom_site_label
 _atom_site_symmetry_multiplicity
 _atom_site_fract_x
 _atom_site_fract_y
 _atom_site_fract_z
 _atom_site_occupancy
  H  H0  1  0.21752196  0.04363673  0.00286691  1
  C  C1  1  0.42875114  0.06368605  0.02705553  1
  H  H2  1  0.31551912  0.04795261  0.07380530  1
  C  C3  1  0.46284342  0.01928988  0.11615080  1
  C  C4  1  0.26141982  0.18779311  0.15845819  1
  Cu  Cu5  1  0.06220757  0.20415971  0.21258964  1
  O  O6  1  0.30107045  0.15894659  0.19907364  1
  C  C7  1  0.46102832  0.03088028  0.20637028  1
  O  O8  1  0.06100725  0.07196662  0.19136469  1
  C  C9  1  0.17913125  0.15026141  0.08522007  1
  H  H10  1  0.18598686  0.22862156  0.07664112  1
  C  C11  1  0.21570496  0.11637592  0.12750682  1
  O  O12  1  0.07063604  0.32823675  0.23631978  1
  C  C13  1  0.12988274  0.08972277  0.05541534  1
  O  O14  1  0.25895151  0.27062712  0.14629752  1
  C  C15  1  0.21205265  0.01895624  0.14446995  1
  Cu  Cu16  1  0.34895804  0.24358194  0.24464267  1
  C  C17  1  0.34038756  0.05627362  0.03651982  1
  C  C18  1  0.08106716  0.12967254  0.01286382  1
  C  C19  1  0.48913078  0.06357043  0.06850032  1
  C  C20  1  0.04333547  0.00792281  0.22300643  1
  H  H21  1  0.47905103  0.25235501  0.04562078  1
  H  H22  1  0.47408384  0.07239865  0.24171938  1
  C  C23  1  0.48672342  0.06945367  0.16119966  1
  O  O24  1  0.29050201  0.13718564  0.35042457  1
  Cu  Cu25  1  0.24146944  0.24273004  0.31705150  1
  H  H26  1  0.37948794  0.35426177  0.48070488  1
  C  C27  1  0.26314415  0.05151735  0.36029326  1
  H  H28  1  0.35682509  0.39171701  0.42053807  1
  O  O29  1  0.40507442  0.33290216  0.28442566  1
  C  C30  1  0.10459465  0.36281926  0.27321114  1
  C  C31  1  0.06162521  0.43020680  0.30648700  1
  C  C32  1  0.48454835  0.02844009  0.47223810  1
  O  O33  1  0.21626088  0.03782317  0.39412139  1
  C  C34  1  0.44024377  0.41075692  0.36082797  1
  O  O35  1  0.31935233  0.32102739  0.34716052  1
  H  H36  1  0.16314740  0.42584006  0.36006940  1
  C  C37  1  0.38439204  0.35551087  0.32886282  1
  O  O38  1  0.18133470  0.34803067  0.28103813  1
  C  C39  1  0.10213816  0.45895490  0.35049180  1
  C  C40  1  0.41467321  0.42611788  0.40890585  1
  H  H41  1  0.34167040  0.06480828  0.27935285  1
  C  C42  1  0.46161236  0.48874876  0.43953043  1
  H  H43  1  0.49769738  0.17950430  0.34403539  1
  O  O44  1  0.23469421  0.27332889  0.68368351  1
  C  C45  1  0.45934236  0.36000854  0.62515150  1
  O  O46  1  0.22781635  0.15561710  0.63053811  1
  C  C47  1  0.37132343  0.20504482  0.58456842  1
  H  H48  1  0.33511305  0.14973901  0.56615497  1
  Cu  Cu49  1  0.22596038  0.03697861  0.65829784  1
  C  C50  1  0.34520846  0.25813147  0.62548087  1
  C  C51  1  0.26365886  0.23217970  0.64939579  1
  C  C52  1  0.38573860  0.33457642  0.64735894  1
  C  C53  1  0.32741643  0.43608239  0.54673186  1
  H  H54  1  0.36302372  0.37061107  0.68046737  1
  H  H55  1  0.43422509  0.04594157  0.54589375  1
  H  H56  1  0.28559016  0.37570424  0.55617109  1
  C  C57  1  0.44673578  0.23240327  0.56556817  1
  C  C58  1  0.48620550  0.17987762  0.52144842  1
  H  H59  1  0.12937097  0.42917921  0.66561955  1
  C  C60  1  0.37679727  0.42014722  0.50521702  1
  H  H61  1  0.29040203  0.43542891  0.68783431  1
  C  C62  1  0.46515099  0.07973095  0.51496687  1
  C  C63  1  0.49179043  0.31246637  0.58214455  1
  C  C64  1  0.09338545  0.49830271  0.66311878  1
  H  H65  1  0.02795141  0.46851476  0.73354143  1
  O  O66  1  0.48006698  0.46994243  0.68992861  1
  O  O67  1  0.20539450  0.02426497  0.72756598  1
  C  C68  1  0.11159258  0.20507482  0.97994745  1
  O  O69  1  0.32624790  0.06709643  0.75277833  1
  H  H70  1  0.08299152  0.31221462  0.92195911  1
  C  C71  1  0.06170798  0.25062344  0.94487802  1
  C  C72  1  0.28947738  0.04794517  0.85606520  1
  H  H73  1  0.17215887  0.23003134  0.98946404  1
  C  C74  1  0.46169848  0.05734822  0.97731510  1
  H  H75  1  0.35431034  0.06792470  0.84719999  1
  C  C76  1  0.23499113  0.02719529  0.81801604  1
  C  C77  1  0.32122441  0.05212755  0.94740594  1
  C  C78  1  0.26353866  0.03975772  0.90577851  1
  H  H79  1  0.42790766  0.04792811  0.89725501  1
  C  C80  1  0.25915034  0.04239561  0.76303184  1
  C  C81  1  0.40784859  0.05058129  0.93766771  1
  H  H82  1  0.25923601  0.47476317  0.78311997  1
  C  C83  1  0.17835971  0.01966876  0.91630039  1
  H  H84  1  0.15848452  0.01228782  0.95422338  1
  H  H85  1  0.49938439  0.35471197  0.96527999  1
  C  C86  1  0.15233841  0.00318931  0.82635816  1
  C  C87  1  0.28752572  0.04845626  0.99730015  1
  C  C88  1  0.33788152  0.56811436  0.14884377  1
  O  O89  1  0.30544826  0.53568790  0.11409717  1
  C  C90  1  0.14888416  0.85615572  0.12929925  1
  O  O91  1  0.17639370  0.83653830  0.17485924  1
  O  O92  1  0.31656101  0.53793262  0.19409139  1
  C  C93  1  0.38670357  0.90012598  0.15983903  1
  C  C94  1  0.41304225  0.63817787  0.14592930  1
  C  C95  1  0.08216905  0.64675931  0.21334424  1
  C  C96  1  0.16347098  0.96226727  0.11432235  1
  O  O97  1  0.12310139  0.79493414  0.10259154  1
  H  H98  1  0.41906190  0.88524501  0.07813416  1
  C  C99  1  0.42285602  0.92653222  0.11377502  1
  H  H100  1  0.08247144  0.56571081  0.11865497  1
  O  O101  1  0.14180996  0.59467813  0.20131958  1
  O  O102  1  0.08934704  0.71050595  0.24639539  1
  H  H103  1  0.35109924  0.83218394  0.16484404  1
  C  C104  1  0.44659059  0.67119533  0.10224742  1
  H  H105  1  0.07521835  0.94682849  0.05395788  1
  H  H106  1  0.42618975  0.65433561  0.06591437  1
  C  C107  1  0.44217921  0.66859650  0.19171885  1
  C  C108  1  0.40120338  0.95348858  0.20452604  1
  Cu  Cu109  1  0.10588177  0.83780890  0.23264805  1
  H  H110  1  0.41415198  0.64150417  0.22679871  1
  C  C111  1  0.02083249  0.58879880  0.13397242  1
  C  C112  1  0.00973098  0.63544164  0.18010536  1
  Cu  Cu113  1  0.24051936  0.59470416  0.23461067  1
  H  H114  1  0.37043492  0.76370737  0.23439795  1
  H  H115  1  0.24308492  0.99764067  0.17866676  1
  C  C116  1  0.11901293  0.99577350  0.07366369  1
  O  O117  1  0.10044782  0.96805682  0.24873547  1
  H  H118  1  0.23261509  0.59178803  0.40891787  1
  C  C119  1  0.30647758  0.80030191  0.30492651  1
  C  C120  1  0.19158537  0.57523028  0.44039460  1
  C  C121  1  0.27258917  0.86512426  0.33870953  1
  C  C122  1  0.44430684  0.77746172  0.47040804  1
  C  C123  1  0.42641606  0.50115313  0.49019817  1
  O  O124  1  0.26893364  0.67205152  0.35705015  1
  C  C125  1  0.29666305  0.69573780  0.31735955  1
  H  H126  1  0.23977169  0.84025686  0.37426815  1
  C  C127  1  0.47391725  0.79383767  0.42220583  1
  C  C128  1  0.28612263  0.96220177  0.32870313  1
  C  C129  1  0.05205562  0.53899320  0.46868215  1
  O  O130  1  0.31201957  0.63475189  0.28319806  1
  C  C131  1  0.10529458  0.55679446  0.42902861  1
  H  H132  1  0.43812056  0.77747997  0.38828857  1
  C  C133  1  0.34827400  0.82110860  0.26059558  1
  C  C134  1  0.36161446  0.91896557  0.25314877  1
  C  C135  1  0.21809111  0.57745954  0.49000952  1
  H  H136  1  0.38063798  0.75342044  0.47294342  1
  C  C137  1  0.06315543  0.52378075  0.38207941  1
  H  H138  1  0.45742106  0.95411347  0.46666526  1
  C  C139  1  0.32911313  0.98821389  0.28641625  1
  C  C140  1  0.36312730  0.82914983  0.56554172  1
  H  H141  1  0.39818887  0.66077126  0.59418274  1
  C  C142  1  0.36674826  0.85395484  0.65481748  1
  C  C143  1  0.45051769  0.82694288  0.65196104  1
  C  C144  1  0.23285157  0.68186724  0.67370834  1
  H  H145  1  0.48862782  0.63063367  0.51623065  1
  C  C146  1  0.32525614  0.85024155  0.61039264  1
  C  C147  1  0.49091590  0.80411816  0.60830611  1
  C  C148  1  0.06194237  0.65275036  0.61937290  1
  C  C149  1  0.17597351  0.55480448  0.58504139  1
  C  C150  1  0.07570354  0.54633149  0.51895895  1
  C  C151  1  0.23241091  0.87299194  0.60143151  1
  C  C152  1  0.38868593  0.59893342  0.56814656  1
  H  H153  1  0.06775939  0.70446313  0.58780967  1
  H  H154  1  0.21771332  0.73492042  0.64607253  1
  C  C155  1  0.21134469  0.69635035  0.72302114  1
  C  C156  1  0.32564133  0.52663387  0.57481013  1
  H  H157  1  0.33801944  0.86585991  0.68809034  1
  C  C158  1  0.26105258  0.58402424  0.66187958  1
  H  H159  1  0.32768067  0.83221996  0.53120305  1
  C  C160  1  0.43727469  0.57843742  0.52623773  1
  H  H161  1  0.17865402  0.76305922  0.73391819  1
  C  C162  1  0.15874315  0.56388373  0.53083289  1
  C  C163  1  0.25521285  0.55362924  0.60759438  1
  C  C164  1  0.10815492  0.56771740  0.62427744  1
  C  C165  1  0.44644276  0.80407105  0.56343604  1
  C  C166  1  0.00006580  0.67041466  0.65507943  1
  C  C167  1  0.27121707  0.51093864  0.69964642  1
  C  C168  1  0.49917265  0.83474537  0.69775721  1
  C  C169  1  0.03695621  0.51713007  0.70188122  1
  O  O170  1  0.20081857  0.85273007  0.56388881  1
  O  O171  1  0.19774365  0.91155096  0.64098099  1
  C  C172  1  0.49138250  0.80435042  0.51373477  1
  H  H173  1  0.02916939  0.52771610  0.54772920  1
  O  O174  1  0.47311399  0.87736183  0.73623772  1
  H  H175  1  0.28076025  0.59490519  0.50175718  1
  C  C176  1  0.16714420  0.68182080  0.91156936  1
  Cu  Cu177  1  0.44258423  0.67744916  0.88610110  1
  C  C178  1  0.02424242  0.72375919  0.89435562  1
  C  C179  1  0.30668563  0.63981059  0.94323940  1
  H  H180  1  0.15760005  0.71325079  0.94957130  1
  C  C181  1  0.10472029  0.69265424  0.87574360  1
  H  H182  1  0.31481377  0.58635504  0.84058460  1
  H  H183  1  0.06571913  0.66802518  0.79834282  1
  C  C184  1  0.24315182  0.64697720  0.89995819  1
  O  O185  1  0.46804473  0.53050596  0.78877122  1
  O  O186  1  0.37789461  0.60758905  0.92901921  1
  H  H187  1  0.11261286  0.98697479  0.79407266  1
  C  C188  1  0.25350167  0.61005416  0.85171624  1
  C  C189  1  0.11480493  0.66435855  0.82559616  1
  C  C190  1  0.19189899  0.62671305  0.81410483  1
  O  O191  1  0.01750564  0.95153654  0.93009623  1
  O  O192  1  0.29307957  0.67459658  0.98204061  1
  C  C193  1  0.04247307  0.96634694  0.88708567  1
  O  O194  1  0.49971631  0.75393020  0.83738386  1
  C  C195  1  0.22541570  0.62381108  0.76056938  1
  O  O196  1  0.01170151  0.75304652  0.93900125  1
  C  C197  1  0.12862679  0.99421713  0.87603347  1
  C  C198  1  0.25601064  0.52996200  0.75106048  1
  H  H199  1  0.53219595  0.12746494  0.15960255  1
  H  H200  1  0.96979743  0.04295836  0.03314183  1
  C  C201  1  0.79190392  0.37812752  0.16497619  1
  H  H202  1  0.81085427  0.15702326  0.15987078  1
  H  H203  1  0.70306142  0.21259806  0.10125435  1
  C  C204  1  0.80300620  0.25358424  0.23253250  1
  C  C205  1  0.70203480  0.13323874  0.11446216  1
  C  C206  1  0.63950067  0.06438859  0.09875917  1
  C  C207  1  0.75899110  0.10953862  0.15176099  1
  O  O208  1  0.94760782  0.33184403  0.14232793  1
  H  H209  1  0.92097349  0.04663637  0.16447506  1
  C  C210  1  0.83143395  0.30857547  0.19313121  1
  C  C211  1  0.99774306  0.09756330  0.00842086  1
  C  C212  1  0.66190753  0.47165233  0.15947924  1
  H  H213  1  0.82369333  0.42534326  0.13672592  1
  C  C214  1  0.66986615  0.33927350  0.21791715  1
  C  C215  1  0.57137552  0.10018383  0.06805707  1
  C  C216  1  0.59808488  0.17655249  0.03302190  1
  O  O217  1  0.95190490  0.21553977  0.20004289  1
  C  C218  1  0.71157987  0.39097907  0.18165802  1
  H  H219  1  0.60976559  0.36341557  0.22947183  1
  C  C220  1  0.91813720  0.28620829  0.17621046  1
  C  C221  1  0.53419678  0.24935547  0.02314209  1
  C  C222  1  0.71867156  0.26883098  0.24280874  1
  H  H223  1  0.71710987  0.10621435  0.01637809  1
  C  C224  1  0.97983634  0.42927304  0.05580889  1
  C  C225  1  0.75527809  0.01276702  0.17056345  1
  H  H226  1  0.98107179  0.29616901  0.01042380  1
  C  C227  1  0.97486238  0.37588995  0.01071179  1
  C  C228  1  0.90109937  0.00688075  0.19838763  1
  H  H229  1  0.99921570  0.39324526  0.09205994  1
  O  O230  1  0.59148481  0.48018339  0.16828246  1
  H  H231  1  0.83506476  0.19235131  0.24878827  1
  C  C232  1  0.67542734  0.16527146  0.00775027  1
  C  C233  1  0.98434438  0.46676541  0.29535670  1
  H  H234  1  0.55025739  0.30853659  0.48680444  1
  H  H235  1  0.58327990  0.21260948  0.41058059  1
  C  C236  1  0.56438520  0.17228817  0.33269068  1
  C  C237  1  0.59901129  0.22386681  0.29396236  1
  C  C238  1  0.51134395  0.45047578  0.34087273  1
  C  C239  1  0.55441001  0.17628659  0.44191385  1
  C  C240  1  0.61188954  0.09313430  0.35276242  1
  C  C241  1  0.68305827  0.20505776  0.27984073  1
  C  C242  1  0.69395137  0.06612760  0.33734014  1
  C  C243  1  0.53146017  0.23097835  0.48349016  1
  C  C244  1  0.72856913  0.12640193  0.30338844  1
  H  H245  1  0.56060406  0.27138866  0.26785380  1
  C  C246  1  0.53271087  0.07547720  0.43313702  1
  H  H247  1  0.53710320  0.43688312  0.30131432  1
  H  H248  1  0.79001468  0.10290321  0.28916289  1
  C  C249  1  0.56770697  0.02942706  0.38937224  1
  H  H250  1  0.72885964  0.00615635  0.35337746  1
  H  H251  1  0.94476756  0.43888016  0.26433598  1
  O  O252  1  0.54004676  0.18987209  0.73218859  1
  C  C253  1  0.76907728  0.23729320  0.68916737  1
  H  H254  1  0.78060501  0.31046046  0.70251448  1
  C  C255  1  0.73997788  0.29450440  0.60276037  1
  O  O256  1  0.74865770  0.37986861  0.62151456  1
  H  H257  1  0.54639235  0.34247796  0.56256519  1
  O  O258  1  0.71423961  0.28302066  0.56152920  1
  C  C259  1  0.71878938  0.12394184  0.62386638  1
  C  C260  1  0.78374361  0.15771451  0.72075411  1
  C  C261  1  0.74254913  0.21485013  0.64093840  1
  H  H262  1  0.69407793  0.11385866  0.58546632  1
  O  O263  1  0.70881380  0.45352443  0.72172286  1
  C  C264  1  0.77510762  0.06294144  0.70002531  1
  C  C265  1  0.73871545  0.04552133  0.65511486  1
  Cu  Cu266  1  0.66858258  0.43493721  0.65849683  1
  C  C267  1  0.50475265  0.44025192  0.64892655  1
  O  O268  1  0.57173670  0.46845442  0.62972108  1
  H  H269  1  0.85216400  0.49522308  0.70688074  1
  H  H270  1  0.78676707  0.00162592  0.72400615  1
  C  C271  1  0.54187193  0.34965359  0.79553810  1
  C  C272  1  0.80284890  0.28195403  0.84552318  1
  C  C273  1  0.87552438  0.23757531  0.86501994  1
  H  H274  1  0.53005028  0.05563796  0.97036728  1
  C  C275  1  0.90490151  0.36638618  0.92532750  1
  C  C276  1  0.60129372  0.23230770  0.85490347  1
  C  C277  1  0.91646255  0.27068663  0.91220233  1
  C  C278  1  0.94571295  0.13939948  0.97317639  1
  C  C279  1  0.57145673  0.39438176  0.88228531  1
  C  C280  1  0.77057120  0.24890235  0.80082571  1
  H  H281  1  0.75045723  0.41893474  0.96440077  1
  H  H282  1  0.61486071  0.15938229  0.86416423  1
  C  C283  1  0.91501643  0.15557747  0.84055239  1
  C  C284  1  0.80666384  0.17159471  0.77505889  1
  C  C285  1  0.67862326  0.21307272  0.96106774  1
  H  H286  1  0.73304763  0.20873548  0.93321861  1
  C  C287  1  0.61199026  0.27339833  0.94625906  1
  C  C288  1  0.87934235  0.12558500  0.79461166  1
  C  C289  1  0.84852836  0.44373433  0.90651475  1
  H  H290  1  0.91121506  0.07419773  0.77121564  1
  O  O291  1  0.57793807  0.08789949  0.78978323  1
  H  H292  1  0.97011786  0.12475953  0.85573775  1
  O  O293  1  0.78408474  0.04642752  0.90579740  1
  C  C294  1  0.60336866  0.30415891  0.89203429  1
  H  H295  1  0.88514377  0.10866643  0.97140303  1
  C  C296  1  0.56720186  0.25856018  0.81020533  1
  H  H297  1  0.56505913  0.45388265  0.90990920  1
  H  H298  1  0.77205515  0.34398267  0.86348800  1
  C  C299  1  0.94375972  0.42334726  0.96683377  1
  C  C300  1  0.77360157  0.46453268  0.93419575  1
  C  C301  1  0.97826531  0.21068596  0.94148612  1
  C  C302  1  0.54301063  0.29719706  0.97821895  1
  C  C303  1  0.56174620  0.17660357  0.77356604  1
  C  C304  1  0.54234336  0.41597075  0.83387000  1
  H  H305  1  0.52331138  0.36941601  0.75588733  1
  C  C306  1  0.87901488  0.49915720  0.86557935  1
  H  H307  1  0.93403240  0.47290366  0.84599965  1
  H  H308  1  0.71858248  0.28669471  0.78251568  1
  H  H309  1  0.58841801  0.91666800  0.10361757  1
  O  O310  1  0.73824367  0.71409708  0.14692636  1
  C  C311  1  0.87530283  0.61827381  0.11883891  1
  C  C312  1  0.69240719  0.94378454  0.15564492  1
  O  O313  1  0.64926579  0.75615892  0.07024210  1
  C  C314  1  0.93630998  0.66735472  0.19951216  1
  O  O315  1  0.77930657  0.70485126  0.22585209  1
  H  H316  1  0.60632321  0.80103894  0.14952046  1
  H  H317  1  0.94699923  0.66510646  0.01210881  1
  H  H318  1  0.69121382  0.87243625  0.17147119  1
  C  C319  1  0.63630453  0.96730325  0.11811431  1
  C  C320  1  0.86994040  0.66013230  0.16620971  1
  C  C321  1  0.50760208  0.73845345  0.19383380  1
  C  C322  1  0.79160855  0.69022672  0.17919914  1
  H  H323  1  0.92846279  0.70477681  0.23510465  1
  C  C324  1  0.82070257  0.98036023  0.20763871  1
  C  C325  1  0.57045032  0.74466096  0.05930992  1
  H  H326  1  0.81793707  0.60798858  0.09493334  1
  Cu  Cu327  1  0.67824556  0.64436581  0.09742476  1
  H  H328  1  0.56426637  0.92263950  0.20822579  1
  C  C329  1  0.55137123  0.75766783  0.14864908  1
  C  C330  1  0.95206393  0.58488141  0.10477316  1
  C  C331  1  0.94996261  0.58448429  0.01034103  1
  C  C332  1  0.96157691  0.53134296  0.05609604  1
  O  O333  1  0.54653958  0.72785685  0.01921145  1
  C  C334  1  0.51727394  0.72710527  0.10590213  1
  O  O335  1  0.69783865  0.52200951  0.12327850  1
  C  C336  1  0.56953037  0.87976562  0.24195172  1
  C  C337  1  0.53793504  0.78173836  0.24019168  1
  C  C338  1  0.96022451  0.97884701  0.23304460  1
  O  O339  1  0.89980374  0.85524988  0.36187783  1
  C  C340  1  0.54517990  0.85767607  0.42071881  1
  H  H341  1  0.65381205  0.91977321  0.45604365  1
  H  H342  1  0.98186414  0.90958019  0.30547536  1
  O  O343  1  0.66816325  0.62038694  0.37818336  1
  C  C344  1  0.56036539  0.92698562  0.37889951  1
  C  C345  1  0.94007769  0.92733459  0.27667930  1
  Cu  Cu346  1  0.74520332  0.70813640  0.35405035  1
  O  O347  1  0.76855758  0.83927487  0.34630726  1
  C  C348  1  0.84197973  0.87174947  0.33610180  1
  C  C349  1  0.59538861  0.87948916  0.46394380  1
  C  C350  1  0.58869754  0.92181819  0.28628375  1
  H  H351  1  0.98830423  0.51958909  0.46216659  1
  C  C352  1  0.85709878  0.90927730  0.28452471  1
  O  O353  1  0.82754123  0.54476581  0.28133179  1
  C  C354  1  0.56896624  0.87046082  0.33261222  1
  C  C355  1  0.62861694  0.56303789  0.35102797  1
  H  H356  1  0.94907027  0.60227510  0.39898029  1
  O  O357  1  0.84135506  0.62933766  0.35237751  1
  H  H358  1  0.54283322  0.72804686  0.36388830  1
  H  H359  1  0.57469263  0.57497561  0.44552893  1
  C  C360  1  0.98448628  0.56248943  0.37314968  1
  Cu  Cu361  1  0.72731957  0.61806824  0.26660323  1
  C  C362  1  0.86927476  0.57032148  0.31765584  1
  O  O363  1  0.65520342  0.54968261  0.30879642  1
  C  C364  1  0.54725449  0.76816533  0.33018571  1
  H  H365  1  0.60792582  0.99705051  0.28933492  1
  C  C366  1  0.53449879  0.53322840  0.42196630  1
  C  C367  1  0.53030029  0.72352354  0.28473755  1
  C  C368  1  0.94793409  0.53039256  0.32890719  1
  C  C369  1  0.55461704  0.51202772  0.37148857  1
  H  H370  1  0.73113572  0.90988922  0.25656029  1
  C  C371  1  0.79339974  0.92982579  0.25087349  1
  H  H372  1  0.51406264  0.64536644  0.28786820  1
  C  C373  1  0.91173236  0.63371476  0.72754882  1
  H  H374  1  0.95066792  0.77896905  0.74483460  1
  O  O375  1  0.68550001  0.92615872  0.60639967  1
  H  H376  1  0.95958315  0.73391358  0.65516572  1
  C  C377  1  0.77174267  0.59776111  0.74617637  1
  Cu  Cu378  1  0.65686507  0.85210371  0.73763622  1
  C  C379  1  0.71793784  0.94119813  0.64580082  1
  C  C380  1  0.84784641  0.56539407  0.72667090  1
  O  O381  1  0.72349090  0.87590007  0.68084062  1
  C  C382  1  0.56657647  0.85394063  0.51187415  1
  Cu  Cu383  1  0.52545324  0.55909099  0.72931142  1
  H  H384  1  0.60343753  0.87322682  0.54641729  1
  O  O385  1  0.57323515  0.80770944  0.69577660  1
  H  H386  1  0.55936398  0.80186862  0.60761997  1
  C  C387  1  0.89919196  0.72645029  0.74691265  1
  C  C388  1  0.69996929  0.53506866  0.74247754  1
  C  C389  1  0.98725795  0.60345082  0.69561909  1
  C  C390  1  0.81003749  0.85587568  0.78291205  1
  H  H391  1  0.92636894  0.56372474  0.93244171  1
  C  C392  1  0.72805385  0.71079891  0.88176962  1
  C  C393  1  0.65009130  0.73007901  0.86433037  1
  C  C394  1  0.73164174  0.54414606  0.92089218  1
  C  C395  1  0.62418560  0.82703634  0.85953480  1
  C  C396  1  0.83428829  0.58022143  0.85431045  1
  H  H397  1  0.67741581  0.56364421  0.94159412  1
  O  O398  1  0.87227518  0.90061835  0.79729979  1
  C  C399  1  0.74756842  0.88110670  0.89989547  1
  C  C400  1  0.67302852  0.90349380  0.87815918  1
  H  H401  1  0.61456317  0.66895296  0.85019176  1
  C  C402  1  0.76276161  0.60555163  0.88193228  1
  H  H403  1  0.83715753  0.77092545  0.91520262  1
  H  H404  1  0.65066597  0.97867778  0.87442898  1
  C  C405  1  0.77827682  0.78702482  0.89957034  1
  H  H406  1  0.85269380  0.62525919  0.82028000  1
  Cu  Cu407  1  0.93598188  0.85761241  0.94612734  1
  H  H408  1  0.69559504  0.70929451  0.77696231  1
  O  O409  1  0.85718590  0.94748924  0.94997223  1
  C  C410  1  0.79869619  0.96682968  0.91914511  1
  C  C411  1  0.53939964  0.83325770  0.84095224  1
  O  O412  1  0.73745042  0.88852568  0.77929147  1
  Cu  Cu413  1  0.93478144  0.84279990  0.84827286  1
  O  O414  1  0.97012800  0.73095411  0.86065661  1
  Cu  Cu415  1  0.53527066  0.97194000  0.76738546  1
  C  C416  1  0.94142407  0.52633825  0.96792981  1
  C  C417  1  0.75907841  0.69297545  0.76429496  1
  C  C418  1  0.82368132  0.75667255  0.76480444  1
  O  O419  1  0.50461967  0.91215353  0.83185856  1
  O  O420  1  0.99960467  0.95143656  0.84843073  1
  O  O421  1  0.50446773  0.56694390  0.86679026  1
  C  C422  1  0.50532647  0.51203583  0.82991149  1
  O  O423  1  0.62990857  0.56108565  0.75900218  1
