# generated using pymatgen
data_ZnHC5O4
_symmetry_space_group_name_H-M   'P 1'
_cell_length_a   23.35557933
_cell_length_b   22.98048901
_cell_length_c   16.17438500
_cell_angle_alpha   90.00000000
_cell_angle_beta   90.00000000
_cell_angle_gamma   90.00000000
_symmetry_Int_Tables_number   1
_chemical_formula_structural   ZnHC5O4
_chemical_formula_sum   'Zn32 H32 C160 O128'
_cell_volume   8681.15852170
_cell_formula_units_Z   32
loop_
 _symmetry_equiv_pos_site_id
 _symmetry_equiv_pos_as_xyz
  1  'x, y, z'
loop_
 _atom_site_type_symbol
 _atom_site_label
 _atom_site_symmetry_multiplicity
 _atom_site_fract_x
 _atom_site_fract_y
 _atom_site_fract_z
 _atom_site_occupancy
  C  C0  1  0.26978687  0.00865507  0.03345086  1
  C  C1  1  0.42635371  0.14637623  0.01153618  1
  C  C2  1  0.17316474  0.01925782  0.02149197  1
  O  O3  1  0.12143039  0.26333318  0.11349408  1
  C  C4  1  0.15790287  0.30408237  0.10130740  1
  O  O5  1  0.39972047  0.36456801  0.08786746  1
  O  O6  1  0.15734136  0.34588921  0.14832199  1
  Zn  Zn7  1  0.05438312  0.23475342  0.03850893  1
  O  O8  1  0.41393992  0.09452409  0.02872750  1
  Zn  Zn9  1  0.20290495  0.43819220  0.14997594  1
  H  H10  1  0.18806726  0.20023555  0.05266191  1
  C  C11  1  0.17068377  0.08070919  0.20352214  1
  C  C12  1  0.20901657  0.23216170  0.01376108  1
  O  O13  1  0.33273568  0.28110957  0.16181423  1
  O  O14  1  0.47017730  0.40939568  0.23793064  1
  O  O15  1  0.20646805  0.12221327  0.19977529  1
  Zn  Zn16  1  0.40627846  0.27031954  0.08260637  1
  C  C17  1  0.48547489  0.43040980  0.05228012  1
  O  O18  1  0.39097995  0.18585358  0.03284898  1
  O  O19  1  0.26467590  0.39623471  0.22624558  1
  Zn  Zn20  1  0.33573339  0.05975419  0.03730558  1
  C  C21  1  0.42147981  0.39314736  0.03301959  1
  O  O22  1  0.15676580  0.48465190  0.24730138  1
  C  C23  1  0.19127330  0.01947296  0.22917934  1
  C  C24  1  0.22696256  0.04842463  0.02364802  1
  C  C25  1  0.19728214  0.29122866  0.02752642  1
  O  O26  1  0.21997593  0.11797000  0.01182158  1
  O  O27  1  0.12038124  0.08350812  0.18891777  1
  O  O28  1  0.00956798  0.19197320  0.16566656  1
  H  H29  1  0.39668443  0.34161578  0.22554646  1
  O  O30  1  0.31585939  0.07371923  0.20495923  1
  H  H31  1  0.13556180  0.04972758  0.01677032  1
  Zn  Zn32  1  0.39812562  0.49607247  0.05868237  1
  C  C33  1  0.48499207  0.49132107  0.06784617  1
  C  C34  1  0.32182836  0.26583937  0.23398207  1
  O  O35  1  0.49238314  0.25522740  0.06100062  1
  C  C36  1  0.30637218  0.02220228  0.23263114  1
  H  H37  1  0.10095963  0.00350442  0.22895676  1
  O  O38  1  0.19414639  0.42179623  0.02317378  1
  C  C39  1  0.04895704  0.46148702  0.00224402  1
  H  H40  1  0.09136115  0.41230673  0.44690389  1
  C  C41  1  0.46292687  0.30076801  0.40612697  1
  O  O42  1  0.35989936  0.17949783  0.49185604  1
  C  C43  1  0.17343073  0.43128202  0.37767044  1
  C  C44  1  0.13479000  0.45061547  0.29891259  1
  C  C45  1  0.36568777  0.27567545  0.30138099  1
  C  C46  1  0.23657891  0.41609319  0.37937186  1
  Zn  Zn47  1  0.18843510  0.34107470  0.38179044  1
  O  O48  1  0.29752817  0.17273606  0.39355109  1
  H  H49  1  0.30494775  0.37710714  0.46648985  1
  C  C50  1  0.25784151  0.37517335  0.44924212  1
  C  C51  1  0.45190192  0.33452649  0.33394206  1
  C  C52  1  0.13798402  0.40023722  0.44536035  1
  C  C53  1  0.48972274  0.38209034  0.29516737  1
  C  C54  1  0.33914512  0.19731397  0.42338975  1
  O  O55  1  0.32345082  0.43694174  0.31286219  1
  C  C56  1  0.37085887  0.24504403  0.37748138  1
  O  O57  1  0.08474518  0.44052532  0.30577641  1
  C  C58  1  0.42293983  0.25739425  0.42019586  1
  H  H59  1  0.43437301  0.23228330  0.47743485  1
  C  C60  1  0.27786653  0.41813665  0.29516390  1
  Zn  Zn61  1  0.28099641  0.14503480  0.27195972  1
  C  C62  1  0.40540486  0.31797283  0.28325570  1
  O  O63  1  0.27784841  0.24023119  0.25447691  1
  C  C64  1  0.42835482  0.48030550  0.49529779  1
  O  O65  1  0.38567554  0.44873012  0.49447180  1
  O  O66  1  0.21723663  0.06304966  0.47506255  1
  C  C67  1  0.17327734  0.04520434  0.49812199  1
  Zn  Zn68  1  0.14285769  0.44928484  0.65639776  1
  O  O69  1  0.38938215  0.10640156  0.72340724  1
  O  O70  1  0.44118639  0.16448341  0.65083161  1
  C  C71  1  0.47827428  0.42318526  0.73047518  1
  Zn  Zn72  1  0.15739599  0.25951185  0.70169512  1
  O  O73  1  0.11186648  0.28714421  0.59109277  1
  C  C74  1  0.45388586  0.36250690  0.69932807  1
  O  O75  1  0.09203695  0.37882082  0.59719031  1
  C  C76  1  0.32862845  0.01897224  0.57982162  1
  O  O77  1  0.46717412  0.31474633  0.73837896  1
  O  O78  1  0.29437541  0.49781142  0.60629152  1
  C  C79  1  0.24604129  0.32016136  0.58635008  1
  O  O80  1  0.28815819  0.34178058  0.61896793  1
  O  O81  1  0.22483555  0.27393439  0.61667361  1
  C  C82  1  0.11729459  0.33688180  0.56751253  1
  O  O83  1  0.21151048  0.47033416  0.56967499  1
  Zn  Zn84  1  0.49916546  0.23950430  0.66216649  1
  O  O85  1  0.35173754  0.43270594  0.74347787  1
  O  O86  1  0.42036356  0.35865669  0.64193611  1
  Zn  Zn87  1  0.34672269  0.41633332  0.61367169  1
  Zn  Zn88  1  0.36008952  0.10002471  0.54362065  1
  O  O89  1  0.47464957  0.46164951  0.52519101  1
  C  C90  1  0.43433191  0.13449254  0.71303470  1
  C  C91  1  0.38673235  0.01752324  0.57987238  1
  O  O92  1  0.13019371  0.02864234  0.52268805  1
  O  O93  1  0.23557131  0.12603886  0.73062477  1
  H  H94  1  0.20461997  0.04000825  0.73362524  1
  C  C95  1  0.16004981  0.35353488  0.50195819  1
  C  C96  1  0.21971378  0.34512495  0.50967420  1
  C  C97  1  0.11655108  0.45846167  0.88675172  1
  C  C98  1  0.38197022  0.47169937  0.77405896  1
  O  O99  1  0.36144000  0.29149325  0.83089224  1
  C  C100  1  0.03510236  0.40199176  0.98614972  1
  C  C101  1  0.48183077  0.13055460  0.78007094  1
  C  C102  1  0.07920307  0.00503219  0.83253496  1
  C  C103  1  0.46913539  0.15003776  0.94369148  1
  O  O104  1  0.36185076  0.19714104  0.83963542  1
  C  C105  1  0.19246202  0.14391614  0.77007206  1
  O  O106  1  0.26176944  0.42335154  0.92845576  1
  O  O107  1  0.10632014  0.31263936  0.78725516  1
  C  C108  1  0.25536479  0.14765796  0.96208137  1
  C  C109  1  0.34099960  0.24642806  0.86199348  1
  C  C110  1  0.22909438  0.33216234  0.98169056  1
  C  C111  1  0.28774497  0.25062927  0.91671248  1
  O  O112  1  0.40565411  0.38917927  0.95801149  1
  C  C113  1  0.05865491  0.37720861  0.91522441  1
  C  C114  1  0.09922835  0.40282271  0.86316987  1
  C  C115  1  0.27091086  0.30826695  0.92812373  1
  C  C116  1  0.44384103  0.46595790  0.76545111  1
  Zn  Zn117  1  0.43928155  0.33210266  0.87229828  1
  C  C118  1  0.24972913  0.21016315  0.95546423  1
  C  C119  1  0.45527831  0.11611721  0.86896686  1
  H  H120  1  0.04740388  0.33225251  0.89877114  1
  C  C121  1  0.16225836  0.49880810  0.83969204  1
  H  H122  1  0.29655505  0.34337419  0.89481645  1
  O  O123  1  0.04915800  0.15355228  0.97016207  1
  H  H124  1  0.41481964  0.09504766  0.86043795  1
  O  O125  1  0.29103987  0.12153347  0.92270005  1
  C  C126  1  0.08887238  0.15732092  0.91613648  1
  C  C127  1  0.10085213  0.10699018  0.85883349  1
  H  H128  1  0.03034422  0.06223306  0.91827082  1
  C  C129  1  0.06613278  0.05808641  0.87324925  1
  Zn  Zn130  1  0.31404595  0.13661109  0.78481786  1
  O  O131  1  0.11180487  0.20474509  0.91558886  1
  C  C132  1  0.15098666  0.10107437  0.80561227  1
  C  C133  1  0.09041961  0.48841501  0.95062086  1
  C  C134  1  0.22872368  0.39710191  0.97608708  1
  C  C135  1  0.12526481  0.36271198  0.79714042  1
  O  O136  1  0.18987030  0.19732185  0.78761494  1
  C  C137  1  0.16485781  0.04583129  0.77203811  1
  O  O138  1  0.16310347  0.38320290  0.75213814  1
  Zn  Zn139  1  0.09751170  0.83856320  0.11270935  1
  O  O140  1  0.05985849  0.88034607  0.21894497  1
  O  O141  1  0.06459768  0.98815766  0.03125298  1
  Zn  Zn142  1  0.22508985  0.69111823  0.11674163  1
  O  O143  1  0.07859362  0.75117487  0.13307123  1
  C  C144  1  0.08423987  0.70695241  0.09016093  1
  C  C145  1  0.24836428  0.60380269  0.08982192  1
  Zn  Zn146  1  0.00703499  0.61114500  0.13926718  1
  H  H147  1  0.23045659  0.58130579  0.21817910  1
  C  C148  1  0.15407576  0.64001907  0.16380074  1
  O  O149  1  0.03941247  0.68432735  0.05509793  1
  O  O150  1  0.07068608  0.60062882  0.22860372  1
  O  O151  1  0.31288645  0.53677133  0.03199270  1
  O  O152  1  0.26403089  0.83240930  0.04500113  1
  O  O153  1  0.05069394  0.55418344  0.07114967  1
  H  H154  1  0.30722086  0.92359516  0.03977100  1
  C  C155  1  0.26724884  0.94786485  0.03766950  1
  C  C156  1  0.13780043  0.67247683  0.08918643  1
  C  C157  1  0.21601376  0.61253108  0.16743913  1
  C  C158  1  0.21806652  0.85543775  0.04311320  1
  C  C159  1  0.27740787  0.54689152  0.09102743  1
  C  C160  1  0.11471650  0.62799681  0.24137381  1
  C  C161  1  0.21396425  0.92309727  0.03782482  1
  C  C162  1  0.10022791  0.94826843  0.02095296  1
  O  O163  1  0.26699648  0.50866923  0.14318895  1
  C  C164  1  0.16414883  0.96016157  0.02635698  1
  O  O165  1  0.17430545  0.82510097  0.03750913  1
  O  O166  1  0.42390219  0.64790545  0.14565837  1
  C  C167  1  0.24519901  0.99712110  0.24022753  1
  C  C168  1  0.02794474  0.50156035  0.06544765  1
  C  C169  1  0.14331247  0.98280068  0.23960438  1
  C  C170  1  0.17037151  0.66130355  0.01485589  1
  C  C171  1  0.23374212  0.63766101  0.01661631  1
  O  O172  1  0.07996737  0.89644649  0.01524171  1
  C  C173  1  0.41345443  0.65870397  0.07826441  1
  O  O174  1  0.40518060  0.67294475  0.00946606  1
  O  O175  1  0.17331042  0.80376810  0.31917076  1
  O  O176  1  0.37608968  0.74122734  0.31617639  1
  C  C177  1  0.47794512  0.57660625  0.44073005  1
  C  C178  1  0.14958230  0.92498817  0.26298291  1
  Zn  Zn179  1  0.30461238  0.75502071  0.39597220  1
  H  H180  1  0.33653187  0.53367935  0.44104803  1
  C  C181  1  0.21350111  0.83544946  0.29722817  1
  C  C182  1  0.36237706  0.61513523  0.39849354  1
  O  O183  1  0.26128817  0.59159692  0.41463128  1
  O  O184  1  0.26393812  0.81868890  0.30220687  1
  C  C185  1  0.41834842  0.70889694  0.33605071  1
  Zn  Zn186  1  0.11579129  0.82531541  0.42057578  1
  O  O187  1  0.28446240  0.66951382  0.34773452  1
  O  O188  1  0.04819310  0.72260831  0.43215605  1
  O  O189  1  0.12131744  0.65187228  0.30909208  1
  H  H190  1  0.29079878  0.91982420  0.28009007  1
  C  C191  1  0.43017219  0.53934861  0.45588777  1
  C  C192  1  0.41200596  0.65032909  0.37986347  1
  C  C193  1  0.30022532  0.62558523  0.38471942  1
  Zn  Zn194  1  0.06257730  0.63222461  0.40067892  1
  C  C195  1  0.46585517  0.62706863  0.39837354  1
  Zn  Zn196  1  0.22995510  0.50854941  0.39157134  1
  C  C197  1  0.20424427  0.89905755  0.26916657  1
  O  O198  1  0.07382179  0.88640001  0.35049403  1
  C  C199  1  0.37590250  0.56214179  0.43400716  1
  C  C200  1  0.24999149  0.93773022  0.26303792  1
  O  O201  1  0.09984537  0.56324914  0.47489616  1
  O  O202  1  0.46798498  0.72587603  0.32293826  1
  C  C203  1  0.09211056  0.89091200  0.27763799  1
  O  O204  1  0.03878448  0.80693174  0.48772288  1
  C  C205  1  0.02777684  0.75215434  0.48841749  1
  H  H206  1  0.13433709  0.68102946  0.49762893  1
  O  O207  1  0.24898295  0.79807592  0.48806590  1
  O  O208  1  0.34595073  0.99332253  0.25872449  1
  H  H209  1  0.24584606  0.96736530  0.59002849  1
  C  C210  1  0.29245895  0.96986605  0.59751665  1
  O  O211  1  0.35148675  0.71327376  0.50970027  1
  C  C212  1  0.38368625  0.92031630  0.61694490  1
  C  C213  1  0.11982966  0.56268490  0.54517848  1
  C  C214  1  0.00406149  0.75026734  0.71587043  1
  C  C215  1  0.22437797  0.57571755  0.58915411  1
  H  H216  1  0.46692270  0.96806668  0.59739664  1
  C  C217  1  0.17076175  0.66204835  0.53557855  1
  C  C218  1  0.32848875  0.71373113  0.57707645  1
  C  C219  1  0.32422154  0.92008530  0.62015107  1
  Zn  Zn220  1  0.35235843  0.83875034  0.64295615  1
  H  H221  1  0.31989965  0.59693519  0.61194684  1
  C  C222  1  0.17029646  0.60051663  0.55972182  1
  O  O223  1  0.09984553  0.52613696  0.59821475  1
  C  C224  1  0.22053862  0.70466435  0.55830227  1
  C  C225  1  0.20911998  0.76713117  0.51733050  1
  O  O226  1  0.34668863  0.74508412  0.63544547  1
  Zn  Zn227  1  0.20714633  0.65240046  0.65686843  1
  C  C228  1  0.27785153  0.61773202  0.60261827  1
  C  C229  1  0.27507728  0.67959480  0.58327668  1
  C  C230  1  0.00749501  0.68698749  0.72820763  1
  O  O231  1  0.15936351  0.78559367  0.52270087  1
  C  C232  1  0.24553049  0.51027771  0.58264947  1
  C  C233  1  0.41989637  0.96750743  0.59972631  1
  O  O234  1  0.06799385  0.82993438  0.74701088  1
  Zn  Zn235  1  0.28236326  0.50980678  0.89220709  1
  H  H236  1  0.10233508  0.53298907  0.95998375  1
  H  H237  1  0.15163705  0.67530598  0.95606361  1
  O  O238  1  0.03451592  0.78074698  0.84827586  1
  O  O239  1  0.28546036  0.98123886  0.85232840  1
  O  O240  1  0.19207751  0.53069543  0.88483167  1
  C  C241  1  0.26768357  0.64375552  0.92913762  1
  C  C242  1  0.47471154  0.51475336  0.80398872  1
  O  O243  1  0.35935182  0.51219060  0.81704576  1
  O  O244  1  0.04946020  0.66160764  0.86190017  1
  O  O245  1  0.29642251  0.60450342  0.89207010  1
  O  O246  1  0.26021898  0.68953750  0.89684820  1
  H  H247  1  0.45314881  0.54823861  0.83928834  1
  C  C248  1  0.12768064  0.99867054  0.78505722  1
  O  O249  1  0.10064096  0.63998912  0.75081276  1
  Zn  Zn250  1  0.08042719  0.92144631  0.78616721  1
  C  C251  1  0.05861065  0.66235822  0.78337662  1
  C  C252  1  0.26596176  0.94410254  0.81113204  1
  C  C253  1  0.03481641  0.79146960  0.77387922  1
  C  C254  1  0.47937659  0.97179390  0.84379863  1
  O  O255  1  0.43301982  0.97397412  0.87009486  1
  O  O256  1  0.17031004  0.50021854  0.76314217  1
  O  O257  1  0.24253898  0.90804244  0.77443133  1
  C  C258  1  0.79904522  0.49599726  0.07874618  1
  Zn  Zn259  1  0.91116120  0.43549160  0.09333373  1
  O  O260  1  0.97690294  0.37562681  0.10412412  1
  C  C261  1  0.58718324  0.44142460  0.06317863  1
  O  O262  1  0.76011269  0.46019316  0.07411124  1
  Zn  Zn263  1  0.66828963  0.46871660  0.06603634  1
  C  C264  1  0.53977358  0.40214983  0.05440511  1
  O  O265  1  0.84277151  0.48394085  0.12483578  1
  O  O266  1  0.91798139  0.23595062  0.18637339  1
  H  H267  1  0.54245227  0.35500077  0.04552261  1
  C  C268  1  0.96282193  0.21488379  0.17618434  1
  C  C269  1  0.99905684  0.35853314  0.03623002  1
  O  O270  1  0.98913643  0.48978350  0.11369406  1
  C  C271  1  0.69072218  0.24134504  0.10930682  1
  O  O272  1  0.72339822  0.24876089  0.05653654  1
  O  O273  1  0.65823775  0.23497569  0.16243999  1
  O  O274  1  0.99416079  0.30763853  0.01515298  1
  Zn  Zn275  1  0.54150032  0.42781299  0.44785490  1
  O  O276  1  0.53803288  0.39513972  0.32620594  1
  O  O277  1  0.54659345  0.33631868  0.47381284  1
  C  C278  1  0.50698063  0.29993491  0.47637206  1
  O  O279  1  0.96413365  0.06059312  0.65983756  1
  O  O280  1  0.58689395  0.19779390  0.67176052  1
  H  H281  1  0.56206279  0.38408355  0.70638879  1
  O  O282  1  0.64031568  0.34180045  0.68515474  1
  O  O283  1  0.61578226  0.11495246  0.71445989  1
  C  C284  1  0.53904049  0.42036124  0.73262366  1
  C  C285  1  0.58491056  0.15600899  0.71751579  1
  O  O286  1  0.50655880  0.26293771  0.53158027  1
  C  C287  1  0.97211564  0.01037381  0.65415510  1
  C  C288  1  0.54064504  0.20761877  0.85210714  1
  Zn  Zn289  1  0.53992554  0.11734812  0.87976060  1
  O  O290  1  0.64868141  0.30077343  0.81696840  1
  O  O291  1  0.51214007  0.29998088  0.94918525  1
  C  C292  1  0.50597869  0.25502325  0.98854147  1
  C  C293  1  0.52995699  0.17118604  0.77911035  1
  H  H294  1  0.56087404  0.25266798  0.84699861  1
  C  C295  1  0.56560692  0.46874423  0.76749960  1
  O  O296  1  0.70264302  0.49505606  0.93189882  1
  O  O297  1  0.89628828  0.45443564  0.93968397  1
  C  C298  1  0.51116991  0.19519465  0.93666780  1
  C  C299  1  0.91180974  0.49576644  0.90434024  1
  C  C300  1  0.64477662  0.32112399  0.75256152  1
  C  C301  1  0.53239428  0.52620935  0.08211797  1
  O  O302  1  0.92910518  0.65033894  0.13241061  1
  C  C303  1  0.91083741  0.66924141  0.06421452  1
  H  H304  1  0.86379472  0.57748637  0.11080040  1
  H  H305  1  0.52653789  0.57381536  0.09403719  1
  O  O306  1  0.92879204  0.71628795  0.03699734  1
  C  C307  1  0.84800195  0.58706786  0.04719079  1
  C  C308  1  0.80314320  0.54742229  0.02290495  1
  O  O309  1  0.61520635  0.56425041  0.21754569  1
  C  C310  1  0.87229308  0.63314543  0.00801394  1
  C  C311  1  0.58792815  0.50169891  0.07549899  1
  O  O312  1  0.61899760  0.65240855  0.01411062  1
  O  O313  1  0.97489787  0.61326784  0.44675948  1
  O  O314  1  0.57782778  0.60092914  0.43147005  1
  C  C315  1  0.54211827  0.56332664  0.44943322  1
  O  O316  1  0.68470541  0.51107192  0.28683256  1
  O  O317  1  0.53997472  0.84217676  0.45523069  1
  H  H318  1  0.50355502  0.65585608  0.38216263  1
  O  O319  1  0.55932223  0.51180594  0.47219055  1
  C  C320  1  0.55161665  0.88535734  0.48797546  1
  C  C321  1  0.65009054  0.53947967  0.25241190  1
  Zn  Zn322  1  0.93086444  0.71103689  0.66788429  1
  O  O323  1  0.90522983  0.60701615  0.53301079  1
  O  O324  1  0.98117574  0.96063306  0.65020482  1
  C  C325  1  0.98601945  0.64318400  0.65969845  1
  O  O326  1  0.71167131  0.77118617  0.59549404  1
  H  H327  1  0.99662149  0.59707503  0.66493582  1
  C  C328  1  0.97968663  0.66708564  0.57594040  1
  C  C329  1  0.73013775  0.81777307  0.58093434  1
  C  C330  1  0.95016206  0.62826158  0.51520638  1
  H  H331  1  0.99865331  0.81876987  0.61885112  1
  O  O332  1  0.56529515  0.92878694  0.51964546  1
  C  C333  1  0.98998714  0.72891754  0.55841263  1
  C  C334  1  0.98741399  0.77206234  0.63471772  1
  O  O335  1  0.74960775  0.86435331  0.57262922  1
  H  H336  1  0.78118779  0.62581017  0.84283926  1
  C  C337  1  0.79897252  0.61520033  0.90430417  1
  O  O338  1  0.92616333  0.53676236  0.86646658  1
  C  C339  1  0.72621935  0.53881911  0.90589679  1
  C  C340  1  0.86713134  0.68703574  0.85912882  1
  O  O341  1  0.91216598  0.71681044  0.86912049  1
  Zn  Zn342  1  0.99146336  0.71647483  0.92877995  1
  O  O343  1  0.84325479  0.68722567  0.79212659  1
  Zn  Zn344  1  0.62162545  0.53200210  0.81363990  1
  O  O345  1  0.70515954  0.56543659  0.84536194  1
  O  O346  1  0.52457975  0.97055128  0.81232780  1
  C  C347  1  0.84902030  0.64457318  0.92675143  1
  C  C348  1  0.77645453  0.56535931  0.94777468  1
  O  O349  1  0.56695055  0.65952369  0.89126015  1
  C  C350  1  0.59293401  0.65580778  0.95329331  1
  C  C351  1  0.53360900  0.51565138  0.80072605  1
