# generated using pymatgen
data_Zn4H12C24O13
_symmetry_space_group_name_H-M   'P 1'
_cell_length_a   19.63979400
_cell_length_b   21.25421258
_cell_length_c   23.09266201
_cell_angle_alpha   90.00000000
_cell_angle_beta   90.00000000
_cell_angle_gamma   90.00000000
_symmetry_Int_Tables_number   1
_chemical_formula_structural   Zn4H12C24O13
_chemical_formula_sum   'Zn32 H96 C192 O104'
_cell_volume   9639.53195015
_cell_formula_units_Z   8
loop_
 _symmetry_equiv_pos_site_id
 _symmetry_equiv_pos_as_xyz
  1  'x, y, z'
loop_
 _atom_site_type_symbol
 _atom_site_label
 _atom_site_symmetry_multiplicity
 _atom_site_fract_x
 _atom_site_fract_y
 _atom_site_fract_z
 _atom_site_occupancy
  C  C0  1  0.32252624  0.31505175  0.12163143  1
  O  O1  1  0.10692672  0.22491913  0.16098557  1
  C  C2  1  0.26797194  0.30743907  0.15800777  1
  C  C3  1  0.40205235  0.29688963  0.03834012  1
  C  C4  1  0.27682434  0.25357903  0.04313422  1
  Zn  Zn5  1  0.01902695  0.22834849  0.20605278  1
  C  C6  1  0.21603656  0.26784537  0.13394469  1
  H  H7  1  0.17940058  0.21715773  0.05452219  1
  C  C8  1  0.43543596  0.00405070  0.09712086  1
  H  H9  1  0.36122296  0.34977842  0.13517685  1
  O  O10  1  0.15915920  0.28274132  0.22476737  1
  C  C11  1  0.15995444  0.25588193  0.17634376  1
  O  O12  1  0.45029737  0.32515417  0.06213708  1
  H  H13  1  0.25944484  0.33319694  0.19894473  1
  C  C14  1  0.21994791  0.24402034  0.07626757  1
  C  C15  1  0.33399338  0.28852233  0.06499049  1
  H  H16  1  0.01811300  0.28094923  0.00891748  1
  O  O17  1  0.48821665  0.02757608  0.07858276  1
  H  H18  1  0.00576138  0.27771151  0.11683997  1
  C  C19  1  0.17197577  0.05429977  0.45530247  1
  C  C20  1  0.08800047  0.36929268  0.46699865  1
  O  O21  1  0.02094147  0.24047053  0.29971708  1
  H  H22  1  0.27738721  0.09810305  0.33901864  1
  C  C23  1  0.07617242  0.34023568  0.40992561  1
  O  O24  1  0.04868500  0.48633262  0.34434754  1
  C  C25  1  0.14058533  0.12310381  0.36994836  1
  O  O26  1  0.15740456  0.15331395  0.32793756  1
  C  C27  1  0.19119829  0.08309362  0.40262431  1
  H  H28  1  0.12372667  0.06490921  0.47532847  1
  Zn  Zn29  1  0.11740608  0.25371677  0.30356698  1
  H  H30  1  0.17616256  0.30862392  0.47621044  1
  C  C31  1  0.30134421  0.03367170  0.40668355  1
  O  O32  1  0.11952494  0.30742529  0.38336309  1
  C  C33  1  0.25731283  0.07599665  0.38086437  1
  O  O34  1  0.07750714  0.12335189  0.38731349  1
  H  H35  1  0.34922196  0.01927536  0.38588255  1
  C  C36  1  0.04025868  0.40866610  0.49171829  1
  O  O37  1  0.02172842  0.35687983  0.38493861  1
  C  C38  1  0.28460683  0.00516241  0.45961196  1
  C  C39  1  0.21864554  0.01607297  0.48405401  1
  H  H40  1  0.00952114  0.29336192  0.49370434  1
  C  C41  1  0.14536986  0.34420505  0.49977056  1
  C  C42  1  0.12232002  0.44088896  0.63451451  1
  C  C43  1  0.19193302  0.11890048  0.66623778  1
  O  O44  1  0.16163792  0.19742383  0.59785533  1
  H  H45  1  0.19954799  0.34789490  0.58154454  1
  H  H46  1  0.31055698  0.10832128  0.70130736  1
  C  C47  1  0.42220722  0.26012053  0.72043831  1
  Zn  Zn48  1  0.17954717  0.31688316  0.69185678  1
  C  C49  1  0.33031082  0.32571730  0.66720899  1
  H  H50  1  0.18704321  0.08011986  0.57856999  1
  O  O51  1  0.27100699  0.32514836  0.64455065  1
  C  C52  1  0.01839990  0.29298060  0.58934800  1
  C  C53  1  0.11113230  0.41363171  0.57394018  1
  H  H54  1  0.27387046  0.20710505  0.65672120  1
  C  C55  1  0.05380620  0.43507045  0.54581760  1
  O  O56  1  0.16783409  0.41762705  0.66407596  1
  C  C57  1  0.16249511  0.18256967  0.64809246  1
  C  C58  1  0.15690613  0.36689370  0.55358575  1
  O  O59  1  0.14379808  0.22058104  0.68756886  1
  O  O60  1  0.36764605  0.37147361  0.67117123  1
  C  C61  1  0.19845440  0.06967883  0.62508788  1
  C  C62  1  0.32119992  0.20934169  0.68199757  1
  C  C63  1  0.20412189  0.10610767  0.72435257  1
  C  C64  1  0.35838939  0.26564454  0.69041884  1
  C  C65  1  0.34289968  0.15193077  0.70496163  1
  H  H66  1  0.06325768  0.32430257  0.58889382  1
  H  H67  1  0.01675079  0.46927224  0.56252340  1
  C  C68  1  0.24532139  0.00209421  0.69764779  1
  C  C69  1  0.44657843  0.20565808  0.74427999  1
  O  O70  1  0.05972941  0.33383200  0.70294905  1
  C  C71  1  0.22776793  0.01338001  0.63867485  1
  C  C72  1  0.01561453  0.29244820  0.69998163  1
  O  O73  1  0.08112196  0.48046306  0.65186490  1
  C  C74  1  0.40362494  0.15220625  0.73733413  1
  H  H75  1  0.45263580  0.30277868  0.72450479  1
  Zn  Zn76  1  0.04019876  0.47009695  0.74223736  1
  C  C77  1  0.22897763  0.04742229  0.73985274  1
  Zn  Zn78  1  0.02821193  0.33104555  0.82052895  1
  C  C79  1  0.35614532  0.12501198  0.95006250  1
  O  O80  1  0.47393231  0.09426788  0.80114041  1
  Zn  Zn81  1  0.48114844  0.06867119  0.88683986  1
  H  H82  1  0.22217010  0.11634759  0.94436660  1
  H  H83  1  0.39145357  0.20729347  0.86284715  1
  C  C84  1  0.29578229  0.23369870  0.82954961  1
  C  C85  1  0.31068708  0.15904362  0.90843238  1
  C  C86  1  0.42158705  0.09307616  0.76617184  1
  H  H87  1  0.14013798  0.17476979  0.88146727  1
  C  C88  1  0.24021170  0.15042903  0.91395647  1
  C  C89  1  0.33679361  0.20033494  0.86515406  1
  O  O90  1  0.11484735  0.26565439  0.82506495  1
  O  O91  1  0.19603577  0.31919680  0.78131933  1
  O  O92  1  0.02734650  0.42266092  0.81460417  1
  O  O93  1  0.33440940  0.07980330  0.97843863  1
  Zn  Zn94  1  0.47597648  0.19655553  0.98534051  1
  H  H95  1  0.31192380  0.26941540  0.79874616  1
  C  C96  1  0.19600643  0.18099005  0.87631174  1
  C  C97  1  0.22528154  0.22682440  0.83861235  1
  C  C98  1  0.17589371  0.27399284  0.81302263  1
  O  O99  1  0.42116240  0.13413219  0.94234604  1
  H  H100  1  0.23451880  0.03584058  0.78516296  1
  H  H101  1  0.19168756  0.14067223  0.75580453  1
  O  O102  1  0.38512634  0.04693243  0.76241510  1
  H  H103  1  0.49841732  0.19758309  0.76244268  1
  H  H104  1  0.28274231  0.23407350  0.99880017  1
  O  O105  1  0.40610965  0.27345176  0.98808647  1
  C  C106  1  0.36173815  0.93458733  0.23030247  1
  H  H107  1  0.32174010  0.96394671  0.14740094  1
  C  C108  1  0.36630790  0.95934805  0.17549509  1
  C  C109  1  0.43156036  0.97530637  0.15553069  1
  C  C110  1  0.49143649  0.96669070  0.18780476  1
  H  H111  1  0.14207103  0.61421718  0.24467321  1
  O  O112  1  0.38489538  0.99259035  0.06513490  1
  C  C113  1  0.48747291  0.94299503  0.24285778  1
  C  C114  1  0.12820070  0.77416501  0.42936371  1
  C  C115  1  0.15358578  0.55967249  0.38728005  1
  C  C116  1  0.15791692  0.60975406  0.28983615  1
  O  O117  1  0.35395766  0.89261625  0.34088935  1
  C  C118  1  0.22942802  0.64292988  0.36720429  1
  C  C119  1  0.10799504  0.78089383  0.37090718  1
  C  C120  1  0.28502444  0.68006994  0.39458243  1
  Zn  Zn121  1  0.44777320  0.86771920  0.44889356  1
  H  H122  1  0.13857555  0.80806262  0.33960353  1
  C  C123  1  0.18527060  0.81052197  0.45359871  1
  O  O124  1  0.39334831  0.95496885  0.47135871  1
  C  C125  1  0.41430237  0.90314167  0.32335901  1
  C  C126  1  0.07977259  0.52073326  0.30883496  1
  C  C127  1  0.21178125  0.64672878  0.30825562  1
  O  O128  1  0.31208858  0.72330396  0.36357163  1
  C  C129  1  0.02286266  0.69738170  0.38245746  1
  H  H130  1  0.01383566  0.65844906  0.47044554  1
  H  H131  1  0.24099997  0.67535681  0.27946708  1
  O  O132  1  0.36537989  0.80868401  0.47011913  1
  Zn  Zn133  1  0.31501501  0.81983412  0.39371398  1
  O  O134  1  0.30481751  0.67105525  0.44534522  1
  H  H135  1  0.04787240  0.74099510  0.30242923  1
  O  O136  1  0.46371607  0.89150885  0.35513344  1
  O  O137  1  0.21601043  0.84692249  0.41868543  1
  C  C138  1  0.20266280  0.59880667  0.40771475  1
  C  C139  1  0.09074829  0.73164435  0.46572520  1
  H  H140  1  0.21920180  0.59549289  0.45301500  1
  C  C141  1  0.05987002  0.74014442  0.34788713  1
  C  C142  1  0.03938163  0.69337972  0.44262855  1
  C  C143  1  0.13042011  0.56688272  0.32930200  1
  O  O144  1  0.05769892  0.52743837  0.25875692  1
  H  H145  1  0.13482987  0.52141696  0.41375080  1
  C  C146  1  0.42194418  0.92809595  0.26315660  1
  C  C147  1  0.33437212  0.96171328  0.49011024  1
  Zn  Zn148  1  0.38416836  0.71693337  0.49344357  1
  H  H149  1  0.31357967  0.92064344  0.25263196  1
  H  H150  1  0.27381718  0.59582140  0.61052760  1
  C  C151  1  0.31574783  0.71699764  0.60807219  1
  C  C152  1  0.16300617  0.71208457  0.70998156  1
  C  C153  1  0.25672165  0.69185914  0.63917757  1
  O  O154  1  0.35144472  0.68509931  0.57613410  1
  O  O155  1  0.44758237  0.83784728  0.72010124  1
  C  C156  1  0.15330770  0.64766274  0.70707302  1
  H  H157  1  0.24220523  0.97992941  0.60469075  1
  H  H158  1  0.17744086  0.55227156  0.67582531  1
  C  C159  1  0.21563037  0.73062357  0.67283131  1
  C  C160  1  0.23970469  0.62679226  0.63459425  1
  C  C161  1  0.18961451  0.60530262  0.67197776  1
  H  H162  1  0.23159854  0.78080922  0.66861695  1
  O  O163  1  0.32289209  0.77826893  0.61253863  1
  O  O164  1  0.28222800  0.89885703  0.67103087  1
  O  O165  1  0.31218283  0.93429388  0.53440413  1
  Zn  Zn166  1  0.30706851  0.83469474  0.53377112  1
  Zn  Zn167  1  0.33854260  0.81848306  0.70393061  1
  C  C168  1  0.27517527  0.93992181  0.71104191  1
  H  H169  1  0.20345249  0.99199800  0.52244734  1
  H  H170  1  0.13377146  0.74538677  0.73984643  1
  H  H171  1  0.10307557  0.73061049  0.51296473  1
  O  O172  1  0.20539684  0.80524229  0.50379870  1
  C  C173  1  0.09796184  0.61867163  0.74342728  1
  O  O174  1  0.48959769  0.72473231  0.50593831  1
  H  H175  1  0.12428890  0.76078155  0.95949427  1
  O  O176  1  0.32032439  0.75875408  0.77508211  1
  O  O177  1  0.37357522  0.67182880  0.75170917  1
  C  C178  1  0.09144382  0.88196502  0.87230951  1
  C  C179  1  0.15593919  0.90754499  0.87605183  1
  C  C180  1  0.16915846  0.66891190  0.86611425  1
  C  C181  1  0.07981244  0.82639318  0.90250504  1
  C  C182  1  0.32689448  0.69897421  0.77537689  1
  C  C183  1  0.22204892  0.56506420  0.84313886  1
  C  C184  1  0.22238067  0.69690459  0.83356581  1
  C  C185  1  0.27577725  0.66166701  0.81093374  1
  H  H186  1  0.12649757  0.69471490  0.88247807  1
  C  C187  1  0.21177354  0.88508438  0.90897008  1
  C  C188  1  0.27327587  0.59556670  0.81262923  1
  H  H189  1  0.21668195  0.74791177  0.82442119  1
  C  C190  1  0.16980941  0.60365855  0.86911435  1
  O  O191  1  0.29645748  0.92233002  0.76096181  1
  C  C192  1  0.13555674  0.80228546  0.93469796  1
  Zn  Zn193  1  0.37851660  0.96087733  0.81768071  1
  C  C194  1  0.48122850  0.85903057  0.76126214  1
  O  O195  1  0.05925202  0.65803639  0.76861646  1
  O  O196  1  0.10129423  0.51613776  0.90708879  1
  C  C197  1  0.11005958  0.57421132  0.90081915  1
  H  H198  1  0.31077863  0.56565470  0.78867126  1
  C  C199  1  0.19957111  0.82731124  0.93798064  1
  O  O200  1  0.32464624  0.90660626  0.94456427  1
  C  C201  1  0.27792381  0.92106104  0.90975084  1
  O  O202  1  0.06568059  0.61100477  0.92041605  1
  O  O203  1  0.10162736  0.56186577  0.75090940  1
  O  O204  1  0.00646398  0.74184485  0.92239728  1
  O  O205  1  0.28482496  0.96745119  0.87775295  1
  H  H206  1  0.22057707  0.51338118  0.85159090  1
  O  O207  1  0.46477865  0.90521330  0.79007396  1
  H  H208  1  0.05023916  0.90717887  0.84956029  1
  H  H209  1  0.16316690  0.95304608  0.85646879  1
  Zn  Zn210  1  0.38955274  0.98784908  0.97377046  1
  H  H211  1  0.23763139  0.81005167  0.96930263  1
  O  O212  1  0.42437231  0.99267915  0.89148369  1
  C  C213  1  0.01201789  0.79405460  0.89906120  1
  C  C214  1  0.94218841  0.36204693  0.18540801  1
  Zn  Zn215  1  0.51745826  0.11759818  0.10392055  1
  C  C216  1  0.69415599  0.35243801  0.18008394  1
  H  H217  1  0.87704937  0.43966143  0.11342700  1
  Zn  Zn218  1  0.53303290  0.27304169  0.09251860  1
  H  H219  1  0.83690673  0.23527452  0.24448655  1
  H  H220  1  0.65719858  0.38577143  0.16168822  1
  C  C221  1  0.85652581  0.11665533  0.15708211  1
  O  O222  1  0.61947573  0.08049982  0.12865292  1
  C  C223  1  0.79891178  0.10680628  0.12424101  1
  C  C224  1  0.73751200  0.10399834  0.15206807  1
  H  H225  1  0.76968076  0.21324065  0.14655349  1
  C  C226  1  0.71670223  0.29865664  0.15025267  1
  C  C227  1  0.67763693  0.09596086  0.10951991  1
  C  C228  1  0.90625665  0.40373515  0.08752489  1
  C  C229  1  0.68226119  0.28284670  0.09466928  1
  O  O230  1  0.70103370  0.23331203  0.06858540  1
  C  C231  1  0.76574313  0.25439281  0.17426975  1
  H  H232  1  0.80196230  0.09760866  0.07698579  1
  O  O233  1  0.68961926  0.10139072  0.05682588  1
  O  O234  1  0.50462081  0.15361667  0.19027400  1
  H  H235  1  0.90845799  0.12018652  0.13693668  1
  O  O236  1  0.54257019  0.18839987  0.04791010  1
  O  O237  1  0.63265210  0.31526186  0.07728656  1
  C  C238  1  0.94240493  0.35881054  0.12046896  1
  C  C239  1  0.79674056  0.26551306  0.22647736  1
  O  O240  1  0.91162792  0.40619809  0.20828997  1
  C  C241  1  0.90860544  0.40537075  0.02901395  1
  O  O242  1  0.52454022  0.25739010  0.18463439  1
  C  C243  1  0.72874612  0.11440811  0.21240517  1
  C  C244  1  0.84884496  0.12397831  0.21714526  1
  O  O245  1  0.96831521  0.14221110  0.22501387  1
  Zn  Zn246  1  0.63767571  0.17652345  0.01535371  1
  C  C247  1  0.53102298  0.20285190  0.20782916  1
  H  H248  1  0.67584853  0.10949656  0.23209339  1
  C  C249  1  0.78627040  0.12002354  0.24755238  1
  C  C250  1  0.72251283  0.36237965  0.23455561  1
  H  H251  1  0.88290897  0.44450842  0.00404777  1
  O  O252  1  0.96823934  0.32175084  0.21917838  1
  C  C253  1  0.98149683  0.31446741  0.09043500  1
  C  C254  1  0.98556703  0.31548694  0.03045958  1
  Zn  Zn255  1  0.95265009  0.49638689  0.23944753  1
  O  O256  1  0.90458203  0.44865133  0.43780380  1
  C  C257  1  0.66912544  0.19540015  0.34476705  1
  O  O258  1  0.90325949  0.13395786  0.48118513  1
  C  C259  1  0.66105283  0.25377967  0.32071802  1
  O  O260  1  0.73840319  0.13873058  0.40770313  1
  C  C261  1  0.80442547  0.33703286  0.31328495  1
  H  H262  1  0.69089808  0.29430416  0.33940933  1
  Zn  Zn263  1  0.99808540  0.17123963  0.35620213  1
  O  O264  1  0.79596825  0.46305167  0.44529268  1
  C  C265  1  0.61312867  0.25656779  0.27569782  1
  C  C266  1  0.63371303  0.13979379  0.32853802  1
  C  C267  1  0.58875557  0.14515535  0.28344740  1
  H  H268  1  0.78185201  0.12480983  0.29451506  1
  H  H269  1  0.64474577  0.09529775  0.34878761  1
  Zn  Zn270  1  0.95977906  0.31035785  0.32310610  1
  O  O271  1  0.93397071  0.21596852  0.43079599  1
  C  C272  1  0.71600835  0.19256550  0.39799209  1
  O  O273  1  0.77920832  0.38226885  0.34226166  1
  Zn  Zn274  1  0.79614529  0.11590821  0.48860724  1
  O  O275  1  0.90535446  0.14687917  0.30231267  1
  O  O276  1  0.73635316  0.23849155  0.42726768  1
  O  O277  1  0.85104835  0.30296169  0.33636579  1
  Zn  Zn278  1  0.83992845  0.27760263  0.42218855  1
  C  C279  1  0.92951844  0.18856620  0.47932016  1
  Zn  Zn280  1  0.80505831  0.47702516  0.33723841  1
  C  C281  1  0.58001706  0.20368665  0.25622181  1
  H  H282  1  0.55376231  0.10475719  0.27088602  1
  H  H283  1  0.60429526  0.30360021  0.25392701  1
  C  C284  1  0.85464768  0.47479884  0.46120163  1
  C  C285  1  0.91142619  0.13781524  0.25039957  1
  C  C286  1  0.77112421  0.32030782  0.25617947  1
  H  H287  1  0.71078820  0.40072351  0.26282196  1
  H  H288  1  0.99510395  0.42253203  0.46578373  1
  C  C289  1  0.81158435  0.34335510  0.53935288  1
  H  H290  1  0.93418040  0.19802402  0.68213397  1
  H  H291  1  0.72398083  0.39886421  0.61940722  1
  C  C292  1  0.80063354  0.44701735  0.66931505  1
  Zn  Zn293  1  0.67530246  0.10234016  0.58283309  1
  C  C294  1  0.87034070  0.46333451  0.67722687  1
  C  C295  1  0.78046677  0.40920028  0.62370639  1
  H  H296  1  0.76559662  0.46985156  0.70013851  1
  Zn  Zn297  1  0.70601713  0.24609821  0.54298128  1
  C  C298  1  0.62584169  0.19655789  0.70817245  1
  O  O299  1  0.74237513  0.16077635  0.54821989  1
  C  C300  1  0.93423066  0.18460645  0.58520707  1
  C  C301  1  0.62750800  0.21007858  0.64357950  1
  O  O302  1  0.65111300  0.25844686  0.62046016  1
  H  H303  1  0.58425507  0.10107489  0.70007384  1
  C  C304  1  0.95113139  0.21186267  0.63792337  1
  H  H305  1  0.90096559  0.14327375  0.58252728  1
  C  C306  1  0.92033742  0.43910491  0.64115075  1
  C  C307  1  0.83305749  0.38739218  0.58674150  1
  C  C308  1  0.90196997  0.39994577  0.59578350  1
  H  H309  1  0.97328709  0.45544653  0.64760777  1
  O  O310  1  0.60189540  0.16575206  0.61434649  1
  C  C311  1  0.95390596  0.21629401  0.53616375  1
  H  H312  1  0.93913983  0.37961192  0.56641400  1
  O  O313  1  0.74818989  0.33900156  0.52916665  1
  H  H314  1  0.65494459  0.29264864  0.72849724  1
  C  C315  1  0.59889798  0.13897369  0.72873331  1
  C  C316  1  0.99325981  0.27261246  0.53620611  1
  C  C317  1  0.99123622  0.26550218  0.64128684  1
  C  C318  1  0.64231114  0.24590846  0.74793319  1
  O  O319  1  0.99121574  0.26986636  0.74616183  1
  O  O320  1  0.69865014  0.01407939  0.56546789  1
  O  O321  1  0.85571738  0.31090223  0.51109070  1
  O  O322  1  0.79240075  0.01272748  0.51424610  1
  C  C323  1  0.61512644  0.17535405  0.82567123  1
  C  C324  1  0.60473510  0.16156469  0.88805653  1
  O  O325  1  0.61862262  0.20390550  0.92594123  1
  C  C326  1  0.59945411  0.12561410  0.78749587  1
  C  C327  1  0.63858677  0.23501548  0.80764628  1
  H  H328  1  0.59230500  0.07891813  0.80227512  1
  H  H329  1  0.65168337  0.26839941  0.84204330  1
  C  C330  1  0.95682096  0.36377216  0.93335654  1
  O  O331  1  0.92702012  0.40637337  0.90457813  1
  O  O332  1  0.58199302  0.10925367  0.90272902  1
  O  O333  1  0.99186192  0.32229434  0.90941588  1
  Zn  Zn334  1  0.99446734  0.48183707  0.87872009  1
  C  C335  1  0.95346331  0.36369524  0.99987485  1
  C  C336  1  0.88076679  0.59061144  0.08850680  1
  O  O337  1  0.94258624  0.55892002  0.16780871  1
  O  O338  1  0.84168404  0.60209533  0.18556338  1
  C  C339  1  0.93724439  0.56723135  0.05651525  1
  C  C340  1  0.81991885  0.61090908  0.05911365  1
  C  C341  1  0.88697089  0.58563488  0.15191717  1
  H  H342  1  0.77162799  0.62149493  0.08143974  1
  H  H343  1  0.98495754  0.54816501  0.07832696  1
  H  H344  1  0.54126218  0.98488961  0.17069518  1
  C  C345  1  0.67618503  0.64465158  0.37647715  1
  C  C346  1  0.72505053  0.60415039  0.34232619  1
  C  C347  1  0.68338131  0.70850395  0.38171588  1
  C  C348  1  0.63780073  0.74474526  0.41386279  1
  C  C349  1  0.57910645  0.64729014  0.43920817  1
  O  O350  1  0.89171524  0.51539841  0.30884689  1
  C  C351  1  0.58339525  0.71332344  0.43971289  1
  H  H352  1  0.72397646  0.73377326  0.35873292  1
  C  C353  1  0.62097299  0.61280100  0.40396385  1
  C  C354  1  0.97405582  0.65378113  0.35411681  1
  O  O355  1  0.95324222  0.65779430  0.30220707  1
  H  H356  1  0.64536354  0.79564851  0.41598259  1
  O  O357  1  0.94594680  0.61503506  0.39026126  1
  H  H358  1  0.61085373  0.56380929  0.39508382  1
  H  H359  1  0.53671310  0.62187352  0.46346184  1
  Zn  Zn360  1  0.86882619  0.60033633  0.27889099  1
  O  O361  1  0.72028015  0.54444197  0.34310507  1
  Zn  Zn362  1  0.95451607  0.51185470  0.37514782  1
  O  O363  1  0.76549752  0.63058723  0.30876593  1
  C  C364  1  0.53174768  0.75201266  0.47453817  1
  O  O365  1  0.53915641  0.81068965  0.47263545  1
  H  H366  1  0.53411524  0.93377074  0.27205468  1
  H  H367  1  0.97124789  0.53286953  0.49257806  1
  O  O368  1  0.94967927  0.67778044  0.64870747  1
  C  C369  1  0.81166220  0.58582165  0.58446175  1
  C  C370  1  0.89015831  0.65578552  0.64191478  1
  H  H371  1  0.93426025  0.86893642  0.61948867  1
  H  H372  1  0.87655738  0.93725800  0.54903661  1
  C  C373  1  0.74977754  0.93224542  0.65271071  1
  H  H374  1  0.76840869  0.60553135  0.61002664  1
  C  C375  1  0.85170217  0.92613373  0.59006957  1
  C  C376  1  0.78200688  0.89325542  0.69293931  1
  O  O377  1  0.93928197  0.81155048  0.72170796  1
  C  C378  1  0.93594509  0.59178836  0.56218019  1
  C  C379  1  0.80173955  0.54725419  0.53620842  1
  O  O380  1  0.84422867  0.66775418  0.67640310  1
  C  C381  1  0.87827784  0.60843558  0.59401380  1
  C  C382  1  0.88488812  0.88841524  0.62957153  1
  C  C383  1  0.88948398  0.51235816  0.72124874  1
  H  H384  1  0.98455954  0.61400655  0.57325584  1
  C  C385  1  0.78655201  0.94982818  0.60267754  1
  H  H386  1  0.69924916  0.95201411  0.65898068  1
  C  C387  1  0.92658489  0.55019533  0.51701109  1
  H  H388  1  0.52758436  0.75548122  0.71476631  1
  H  H389  1  0.75776076  0.88142388  0.73423080  1
  C  C390  1  0.75799146  0.99385579  0.55778239  1
  C  C391  1  0.88232157  0.83881843  0.72854293  1
  C  C392  1  0.86029639  0.52643040  0.50677444  1
  Zn  Zn393  1  0.96263088  0.70672807  0.73770950  1
  C  C394  1  0.84974521  0.87325750  0.68093297  1
  O  O395  1  0.95151950  0.52114048  0.73144954  1
  H  H396  1  0.75323941  0.53485325  0.51636131  1
  C  C397  1  0.56528117  0.77369313  0.74851828  1
  H  H398  1  0.64120630  0.70033935  0.73998769  1
  C  C399  1  0.58060106  0.84796772  0.82879752  1
  Zn  Zn400  1  0.98923018  0.65595195  0.86639720  1
  H  H401  1  0.56606533  0.89288543  0.84935569  1
  C  C402  1  0.66280370  0.76427925  0.81134465  1
  Zn  Zn403  1  0.87103866  0.76506396  0.84891788  1
  C  C404  1  0.87753663  0.59188885  0.96963083  1
  Zn  Zn405  1  0.83926775  0.63439490  0.77616571  1
  C  C406  1  0.64300967  0.81705866  0.84178589  1
  C  C407  1  0.54410196  0.82576192  0.78143473  1
  C  C408  1  0.72532705  0.72828728  0.82803225  1
  H  H409  1  0.67429147  0.83380727  0.87678433  1
  O  O410  1  0.95898662  0.81739121  0.87626171  1
  O  O411  1  0.76531639  0.74515377  0.86699467  1
  O  O412  1  0.93326508  0.57134283  0.87781206  1
  O  O413  1  0.91982310  0.68772417  0.80900738  1
  C  C414  1  0.62316846  0.74301846  0.76374044  1
  H  H415  1  0.77529526  0.62750582  0.97676069  1
  C  C416  1  0.93859168  0.57231102  0.99717176  1
  C  C417  1  0.87542319  0.58565645  0.90385499  1
  O  O418  1  0.82746171  0.59952051  0.87560464  1
  O  O419  1  0.74103382  0.68282522  0.79480354  1
  O  O420  1  0.85089653  0.83688250  0.77468156  1
  H  H421  1  0.98053060  0.55658164  0.96962994  1
  C  C422  1  0.81885754  0.61153864  0.99914150  1
  O  O423  1  0.84391553  0.53690742  0.75057884  1
