# generated using pymatgen
data_Zn4H12C24O13
_symmetry_space_group_name_H-M   'P 1'
_cell_length_a   26.44338517
_cell_length_b   26.30750677
_cell_length_c   26.50393043
_cell_angle_alpha   90.00000000
_cell_angle_beta   90.00000000
_cell_angle_gamma   90.00000000
_symmetry_Int_Tables_number   1
_chemical_formula_structural   Zn4H12C24O13
_chemical_formula_sum   'Zn32 H96 C192 O104'
_cell_volume   18437.71189859
_cell_formula_units_Z   8
loop_
 _symmetry_equiv_pos_site_id
 _symmetry_equiv_pos_as_xyz
  1  'x, y, z'
loop_
 _atom_site_type_symbol
 _atom_site_label
 _atom_site_symmetry_multiplicity
 _atom_site_fract_x
 _atom_site_fract_y
 _atom_site_fract_z
 _atom_site_occupancy
  Zn  Zn0  1  0.20268648  0.23051114  0.19562604  1
  H  H1  1  0.05006987  0.24992921  0.16320264  1
  H  H2  1  0.23379274  0.19262384  0.04184310  1
  H  H3  1  0.16929500  0.06728338  0.20022700  1
  C  C4  1  0.24018765  0.22661457  0.02010111  1
  O  O5  1  0.24393151  0.23350533  0.12373024  1
  C  C6  1  0.02580943  0.24818474  0.19660312  1
  C  C7  1  0.20106726  0.04166206  0.21077288  1
  O  O8  1  0.20693860  0.14838152  0.22170892  1
  C  C9  1  0.24370447  0.12292172  0.23396252  1
  C  C10  1  0.24493493  0.06538614  0.23037854  1
  O  O11  1  0.28494888  0.14401212  0.24618234  1
  O  O12  1  0.13127707  0.25587460  0.20282674  1
  C  C13  1  0.10583412  0.26487049  0.24346416  1
  C  C14  1  0.05058541  0.25697393  0.24411374  1
  C  C15  1  0.24939908  0.27471991  0.10007031  1
  Zn  Zn16  1  0.29302600  0.30348913  0.19893751  1
  O  O17  1  0.25108385  0.26216992  0.24445847  1
  O  O18  1  0.36764091  0.26536959  0.21329788  1
  H  H19  1  0.32951060  0.47041361  0.21067133  1
  H  H20  1  0.26817241  0.35613920  0.03511350  1
  H  H21  1  0.45546672  0.27408255  0.18116837  1
  C  C22  1  0.25047472  0.27349045  0.04440430  1
  C  C23  1  0.26182507  0.31826388  0.01742950  1
  O  O24  1  0.25609247  0.31584464  0.12452900  1
  C  C25  1  0.47449270  0.25781643  0.21228350  1
  O  O26  1  0.29351779  0.38333095  0.22443443  1
  C  C27  1  0.25611937  0.46055849  0.24358062  1
  C  C28  1  0.25411211  0.40444017  0.24067096  1
  C  C29  1  0.29655117  0.48894794  0.22521196  1
  C  C30  1  0.24601110  0.19488811  0.46601705  1
  H  H31  1  0.24848555  0.15943369  0.44333444  1
  C  C32  1  0.23610473  0.24224752  0.44324800  1
  C  C33  1  0.24048152  0.24829152  0.38773931  1
  O  O34  1  0.36643809  0.23024737  0.28798408  1
  C  C35  1  0.47012667  0.22277254  0.29815808  1
  O  O36  1  0.25316930  0.20984670  0.36098980  1
  Zn  Zn37  1  0.28457649  0.21214519  0.28887845  1
  H  H38  1  0.31456313  0.06021697  0.26857726  1
  H  H39  1  0.44496717  0.21155733  0.32949591  1
  C  C40  1  0.39029992  0.24792967  0.25199110  1
  C  C41  1  0.44612921  0.24114484  0.25445426  1
  C  C42  1  0.28538390  0.03913511  0.25185661  1
  C  C43  1  0.21207205  0.48531576  0.25911264  1
  C  C44  1  0.22044851  0.28612892  0.46997451  1
  C  C45  1  0.02607259  0.26057196  0.29091124  1
  O  O46  1  0.12989084  0.27594700  0.28399436  1
  O  O47  1  0.23448568  0.29063343  0.36709038  1
  H  H48  1  0.04747797  0.26339240  0.32664601  1
  H  H49  1  0.20807983  0.31907272  0.45008698  1
  H  H50  1  0.18109317  0.45969022  0.27340504  1
  Zn  Zn51  1  0.20742968  0.30211538  0.28895711  1
  O  O52  1  0.21750075  0.37916706  0.25610334  1
  C  C53  1  0.24562393  0.19376170  0.51781037  1
  C  C54  1  0.23778500  0.23861670  0.54675251  1
  C  C55  1  0.24619884  0.24175958  0.60217416  1
  C  C56  1  0.45483946  0.24368036  0.74572542  1
  C  C57  1  0.39902022  0.24543197  0.74254981  1
  O  O58  1  0.26157843  0.20439421  0.62597260  1
  H  H59  1  0.25618840  0.15852313  0.53898004  1
  Zn  Zn60  1  0.29405463  0.21472844  0.70546448  1
  H  H61  1  0.46012480  0.20077070  0.67512564  1
  H  H62  1  0.31514730  0.04748894  0.73307872  1
  O  O63  1  0.37170852  0.22681192  0.70741537  1
  C  C64  1  0.48265954  0.21953795  0.70647152  1
  C  C65  1  0.27870529  0.03195330  0.74059183  1
  H  H66  1  0.05833194  0.27610385  0.66834243  1
  O  O67  1  0.23227560  0.28166506  0.62229263  1
  C  C68  1  0.23072052  0.48056228  0.72008436  1
  C  C69  1  0.03130031  0.26782842  0.69938114  1
  H  H70  1  0.20998692  0.31455349  0.54560555  1
  C  C71  1  0.22036456  0.28253317  0.52197155  1
  H  H72  1  0.19545586  0.46289584  0.70590890  1
  O  O73  1  0.13378603  0.27393878  0.70539700  1
  O  O74  1  0.23450498  0.37834669  0.71167242  1
  Zn  Zn75  1  0.20951026  0.29967593  0.69719915  1
  C  C76  1  0.05700937  0.26048454  0.74521598  1
  C  C77  1  0.11275781  0.26210409  0.74766774  1
  C  C78  1  0.27502753  0.39678489  0.72835173  1
  O  O79  1  0.25078665  0.26087534  0.74391002  1
  C  C80  1  0.27524446  0.45351867  0.73226967  1
  C  C81  1  0.31878233  0.47881785  0.74779430  1
  O  O82  1  0.31209777  0.37007749  0.74267463  1
  Zn  Zn83  1  0.21095706  0.22090299  0.78945557  1
  H  H84  1  0.23081840  0.18874148  0.94970184  1
  C  C85  1  0.24074228  0.22265287  0.96830321  1
  H  H86  1  0.15969035  0.06355618  0.77946151  1
  O  O87  1  0.23004717  0.22468734  0.86650821  1
  C  C88  1  0.19128341  0.03931954  0.77191922  1
  O  O89  1  0.20458269  0.14494083  0.76582094  1
  C  C90  1  0.24371565  0.11963616  0.75835746  1
  C  C91  1  0.23733115  0.06231847  0.75532063  1
  H  H92  1  0.04807024  0.24607280  0.82877242  1
  O  O93  1  0.28314454  0.14215910  0.75082629  1
  O  O94  1  0.13515482  0.25451984  0.78811043  1
  C  C95  1  0.02877505  0.25230489  0.79076156  1
  C  C96  1  0.24925923  0.26516271  0.88598935  1
  C  C97  1  0.47915261  0.26927313  0.78536998  1
  H  H98  1  0.45622407  0.28390111  0.81611086  1
  O  O99  1  0.26336807  0.30083103  0.85876389  1
  C  C100  1  0.25156006  0.26814715  0.94215927  1
  C  C101  1  0.26032338  0.31536419  0.96473558  1
  H  H102  1  0.26459234  0.35088003  0.94119229  1
  H  H103  1  0.35683224  0.46055604  0.75259059  1
  Zn  Zn104  1  0.30226586  0.29917584  0.78669339  1
  O  O105  1  0.37892661  0.27430591  0.77476830  1
  O  O106  1  0.26309657  0.71894141  0.13180987  1
  C  C107  1  0.46694868  0.74882603  0.20342209  1
  C  C108  1  0.26831895  0.71031864  0.02575025  1
  H  H109  1  0.28513100  0.68124781  0.05012503  1
  Zn  Zn110  1  0.28518321  0.71592477  0.21099007  1
  H  H111  1  0.32826550  0.56256934  0.22459103  1
  H  H112  1  0.44361948  0.74331039  0.16865709  1
  O  O113  1  0.29573667  0.64550991  0.23982861  1
  C  C114  1  0.25169203  0.56752060  0.24895006  1
  C  C115  1  0.29451014  0.54144813  0.23124000  1
  C  C116  1  0.24167814  0.90359109  0.23552380  1
  C  C117  1  0.24269194  0.96223402  0.23141262  1
  C  C118  1  0.24522002  0.75169780  0.05051507  1
  C  C119  1  0.01746191  0.76063108  0.21933050  1
  H  H120  1  0.03618485  0.76792936  0.18505468  1
  O  O121  1  0.20210772  0.88389474  0.21983501  1
  O  O122  1  0.11975707  0.77546026  0.21846059  1
  H  H123  1  0.20325261  0.81951947  0.04705478  1
  C  C124  1  0.22022380  0.79063582  0.02441062  1
  O  O125  1  0.23037870  0.79490036  0.13093774  1
  H  H126  1  0.17026515  0.96551423  0.19440908  1
  C  C127  1  0.20205991  0.98833150  0.20846797  1
  Zn  Zn128  1  0.19886362  0.80181239  0.20359056  1
  C  C129  1  0.24666489  0.75616252  0.10845848  1
  O  O130  1  0.35934951  0.75788417  0.21443694  1
  C  C131  1  0.44332715  0.76170439  0.24874722  1
  Zn  Zn132  1  0.20431818  0.72090031  0.30316216  1
  H  H133  1  0.17324615  0.55572275  0.27119635  1
  H  H134  1  0.04329400  0.73897631  0.34430795  1
  H  H135  1  0.24932689  0.68299446  0.46262983  1
  C  C136  1  0.20940876  0.53795182  0.26204938  1
  O  O137  1  0.21694941  0.64815948  0.26637706  1
  C  C138  1  0.02135541  0.74328309  0.30847063  1
  O  O139  1  0.12760322  0.74572432  0.29575807  1
  O  O140  1  0.25191084  0.72146274  0.37106268  1
  C  C141  1  0.25404860  0.72096380  0.47940897  1
  C  C142  1  0.25494306  0.62347550  0.25130917  1
  C  C143  1  0.04474160  0.75307542  0.26393035  1
  C  C144  1  0.10139004  0.75815463  0.25851072  1
  O  O145  1  0.23798394  0.76215776  0.25305086  1
  C  C146  1  0.38623745  0.76563543  0.25352486  1
  O  O147  1  0.27574313  0.88026745  0.25600533  1
  H  H148  1  0.44981963  0.77846685  0.32874415  1
  C  C149  1  0.25637431  0.76533465  0.45032763  1
  C  C150  1  0.47052758  0.77183102  0.29371590  1
  C  C151  1  0.25357314  0.76317936  0.39428962  1
  C  C152  1  0.25834145  0.81362243  0.47509950  1
  H  H153  1  0.31390500  0.96249444  0.27260151  1
  H  H154  1  0.25965019  0.84808962  0.45244248  1
  Zn  Zn155  1  0.28573626  0.80610760  0.29284795  1
  O  O156  1  0.25800077  0.80529816  0.37161034  1
  O  O157  1  0.36326545  0.77852639  0.29293397  1
  C  C158  1  0.28356200  0.98610655  0.25336877  1
  Zn  Zn159  1  0.21876599  0.71423495  0.70358122  1
  H  H160  1  0.19295779  0.55465109  0.71856990  1
  H  H161  1  0.05103493  0.70224187  0.68086723  1
  C  C162  1  0.22840982  0.53150813  0.72729436  1
  C  C163  1  0.03095059  0.72056701  0.71345618  1
  O  O164  1  0.22832478  0.63706009  0.73034846  1
  H  H165  1  0.24397270  0.69071946  0.55472574  1
  O  O166  1  0.13700788  0.72326442  0.71457883  1
  C  C167  1  0.25098006  0.72435374  0.53219475  1
  O  O168  1  0.25817506  0.72726149  0.63500087  1
  C  C169  1  0.27324231  0.55827685  0.74116774  1
  C  C170  1  0.26900992  0.61507289  0.74431615  1
  C  C171  1  0.31743137  0.53235458  0.74952525  1
  C  C172  1  0.25919855  0.81669927  0.52691873  1
  H  H173  1  0.29681001  0.95386440  0.71658749  1
  C  C174  1  0.26193993  0.76932254  0.61244659  1
  C  C175  1  0.25756982  0.77169701  0.55551344  1
  C  C176  1  0.48220958  0.77657712  0.71244706  1
  O  O177  1  0.26758499  0.80963436  0.63790197  1
  H  H178  1  0.26023622  0.85443675  0.54939731  1
  Zn  Zn179  1  0.29347472  0.80954046  0.71181821  1
  C  C180  1  0.27070777  0.97942617  0.73577309  1
  O  O181  1  0.37744049  0.79337839  0.71490687  1
  O  O182  1  0.27195484  0.88148286  0.73541422  1
  H  H183  1  0.46070922  0.79200107  0.67960058  1
  C  C184  1  0.24354399  0.74776965  0.94727835  1
  C  C185  1  0.24636294  0.74789009  0.89025177  1
  C  C186  1  0.05627350  0.73470880  0.75751844  1
  C  C187  1  0.11368550  0.73811351  0.75262184  1
  O  O188  1  0.26673314  0.71134010  0.86733316  1
  C  C189  1  0.26556389  0.70704223  0.97331770  1
  H  H190  1  0.27817566  0.67367377  0.95287155  1
  Zn  Zn191  1  0.30287016  0.71268465  0.79176739  1
  H  H192  1  0.35095882  0.55344864  0.75963481  1
  H  H193  1  0.45248639  0.73090283  0.83235170  1
  C  C194  1  0.47643423  0.74352907  0.79862327  1
  O  O195  1  0.30319522  0.63768405  0.76877138  1
  H  H196  1  0.06052085  0.76285476  0.83630165  1
  C  C197  1  0.03576597  0.75086291  0.80464162  1
  H  H198  1  0.15489671  0.96604159  0.78552340  1
  O  O199  1  0.19648350  0.87128802  0.76608007  1
  C  C200  1  0.22031994  0.78840125  0.97145644  1
  Zn  Zn201  1  0.20793060  0.79395846  0.78989805  1
  O  O202  1  0.22790661  0.78601385  0.87000597  1
  O  O203  1  0.13382695  0.76121905  0.78751593  1
  H  H204  1  0.20369283  0.81980427  0.94885247  1
  C  C205  1  0.18944541  0.98779841  0.77716528  1
  C  C206  1  0.22947740  0.95726874  0.75972460  1
  C  C207  1  0.23099389  0.90074591  0.75356230  1
  O  O208  1  0.25872316  0.75413477  0.75235147  1
  O  O209  1  0.37117645  0.76185133  0.79144117  1
  C  C210  1  0.45351792  0.76271698  0.75512276  1
  C  C211  1  0.39694687  0.77062430  0.75204832  1
  C  C212  1  0.73876263  0.23647561  0.10881909  1
  C  C213  1  0.74451599  0.23303053  0.05227578  1
  O  O214  1  0.62799543  0.24549611  0.21753787  1
  O  O215  1  0.71786073  0.12737416  0.24591153  1
  C  C216  1  0.70261885  0.02084647  0.24448930  1
  C  C217  1  0.74907877  0.04291853  0.22924802  1
  O  O218  1  0.75465753  0.23767207  0.24840980  1
  O  O219  1  0.75685200  0.20040551  0.13311484  1
  C  C220  1  0.75844762  0.18735809  0.02760093  1
  H  H221  1  0.76660761  0.15556522  0.05270566  1
  Zn  Zn222  1  0.79584895  0.20201172  0.20298768  1
  H  H223  1  0.95863781  0.23886455  0.15895304  1
  O  O224  1  0.87495964  0.22069736  0.20306132  1
  C  C225  1  0.97493947  0.24180265  0.19636839  1
  H  H226  1  0.82602167  0.03472668  0.20361602  1
  C  C227  1  0.79280653  0.01458236  0.21606415  1
  O  O228  1  0.79743246  0.11827963  0.22305207  1
  C  C229  1  0.94908342  0.24519811  0.24362592  1
  C  C230  1  0.75548833  0.09853347  0.23269750  1
  C  C231  1  0.89374693  0.23949803  0.24374171  1
  H  H232  1  0.55210661  0.26623070  0.18293959  1
  C  C233  1  0.52726273  0.25542660  0.21489907  1
  H  H234  1  0.66795706  0.44048781  0.22451934  1
  C  C235  1  0.73097702  0.27672789  0.02657677  1
  C  C236  1  0.70102933  0.46022048  0.23989628  1
  O  O237  1  0.71305157  0.35695570  0.22565397  1
  O  O238  1  0.71994510  0.27460384  0.12908795  1
  H  H239  1  0.71415923  0.31214393  0.04345296  1
  Zn  Zn240  1  0.70237874  0.27615863  0.20860117  1
  C  C241  1  0.74935882  0.37841576  0.24936185  1
  Zn  Zn242  1  0.70846896  0.19077619  0.29279455  1
  H  H243  1  0.73464450  0.15881514  0.44392794  1
  H  H244  1  0.66801894  0.04100932  0.25352640  1
  C  C245  1  0.74308335  0.19190686  0.46743176  1
  O  O246  1  0.74462399  0.20405871  0.36574249  1
  H  H247  1  0.53631859  0.20274114  0.33744532  1
  O  O248  1  0.62915511  0.21123914  0.29302811  1
  C  C249  1  0.52166046  0.21648970  0.30090617  1
  C  C250  1  0.60484439  0.23006464  0.25723414  1
  C  C251  1  0.54884810  0.23395541  0.25845880  1
  C  C252  1  0.75730477  0.23943034  0.44530609  1
  O  O253  1  0.86734598  0.24871618  0.28195750  1
  C  C254  1  0.75660300  0.24245351  0.39038049  1
  C  C255  1  0.74508266  0.43392323  0.25682543  1
  O  O256  1  0.76871480  0.28275807  0.36740354  1
  H  H257  1  0.81504260  0.44073335  0.29900025  1
  C  C258  1  0.76801630  0.28383147  0.47349726  1
  Zn  Zn259  1  0.79443885  0.28044227  0.29475952  1
  C  C260  1  0.78499545  0.46141479  0.28006381  1
  H  H261  1  0.78081095  0.31627153  0.45322289  1
  H  H262  1  0.94864646  0.25373079  0.32432973  1
  C  C263  1  0.97373762  0.25275017  0.28909112  1
  O  O264  1  0.78696550  0.35291912  0.26268228  1
  Zn  Zn265  1  0.71925810  0.19807681  0.70992234  1
  H  H266  1  0.72452092  0.15842773  0.53775600  1
  C  C267  1  0.74096460  0.19234681  0.51884482  1
  H  H268  1  0.68452373  0.03681812  0.74399349  1
  O  O269  1  0.72556776  0.12444281  0.74005634  1
  H  H270  1  0.55822146  0.19900530  0.68006034  1
  C  C271  1  0.53413265  0.21970909  0.70586607  1
  O  O272  1  0.63616389  0.21316824  0.71296518  1
  C  C273  1  0.55840238  0.24125656  0.74833839  1
  C  C274  1  0.61488781  0.23646311  0.74830486  1
  O  O275  1  0.73095958  0.19389800  0.62478314  1
  C  C276  1  0.74267117  0.23462249  0.60480259  1
  C  C277  1  0.74709258  0.23692479  0.54788817  1
  C  C278  1  0.89694220  0.24764427  0.74111073  1
  O  O279  1  0.87078722  0.25290224  0.70125154  1
  C  C280  1  0.75179179  0.38581274  0.74543748  1
  C  C281  1  0.76057113  0.28277822  0.52625717  1
  H  H282  1  0.96361436  0.26896776  0.65804514  1
  O  O283  1  0.78948629  0.36232551  0.72607515  1
  Zn  Zn284  1  0.79439337  0.28478004  0.69995408  1
  O  O285  1  0.75061732  0.27386599  0.63088930  1
  H  H286  1  0.82418333  0.44482800  0.71046104  1
  C  C287  1  0.97907553  0.26403749  0.69653723  1
  H  H288  1  0.76553198  0.31393289  0.55218860  1
  C  C289  1  0.79484377  0.46830878  0.72660992  1
  C  C290  1  0.95164248  0.25353028  0.74170011  1
  C  C291  1  0.75317033  0.44219124  0.74808329  1
  C  C292  1  0.71961019  0.01715659  0.75263320  1
  C  C293  1  0.74991138  0.23504832  0.89502181  1
  C  C294  1  0.74864430  0.23063033  0.95089723  1
  O  O295  1  0.75921453  0.19404296  0.87138268  1
  C  C296  1  0.75938798  0.18317551  0.97552728  1
  H  H297  1  0.76761671  0.14728087  0.95784664  1
  Zn  Zn298  1  0.80391682  0.20229696  0.79711671  1
  H  H299  1  0.84036292  0.04613979  0.79254112  1
  C  C300  1  0.80981653  0.02283338  0.77702024  1
  O  O301  1  0.80451963  0.12787420  0.76116137  1
  H  H302  1  0.95453336  0.24708463  0.82288312  1
  O  O303  1  0.87520091  0.23589170  0.78179896  1
  C  C304  1  0.76392890  0.04556633  0.76253040  1
  C  C305  1  0.76446244  0.10131712  0.75530559  1
  O  O306  1  0.76028503  0.23699876  0.75107256  1
  O  O307  1  0.63852811  0.25654131  0.78412825  1
  C  C308  1  0.53180628  0.26520447  0.78610558  1
  H  H309  1  0.55019650  0.28272910  0.82010821  1
  O  O310  1  0.71486563  0.36269008  0.76338513  1
  H  H311  1  0.72560505  0.31157009  0.95213025  1
  C  C312  1  0.73645107  0.27632188  0.97446224  1
  C  C313  1  0.71389932  0.47000408  0.76835670  1
  Zn  Zn314  1  0.71709256  0.28298266  0.79298089  1
  O  O315  1  0.73840740  0.27602291  0.87315766  1
  H  H316  1  0.67985535  0.44970622  0.77807789  1
  C  C317  1  0.97687829  0.25033143  0.78796422  1
  Zn  Zn318  1  0.69497317  0.69265615  0.22132916  1
  H  H319  1  0.71072562  0.65064819  0.05155795  1
  C  C320  1  0.72115030  0.68497095  0.03247048  1
  H  H321  1  0.66399529  0.52966926  0.23535970  1
  C  C322  1  0.70004801  0.51186857  0.24453082  1
  O  O323  1  0.69877015  0.61596111  0.24461857  1
  O  O324  1  0.71564538  0.69250165  0.13972560  1
  H  H325  1  0.54280193  0.73125762  0.17112937  1
  C  C326  1  0.51977967  0.74226769  0.20432542  1
  O  O327  1  0.62258976  0.72554784  0.21276006  1
  C  C328  1  0.73784068  0.72843555  0.05982834  1
  C  C329  1  0.73166242  0.72903412  0.11564027  1
  O  O330  1  0.86591040  0.74878329  0.21451398  1
  C  C331  1  0.74103429  0.88224739  0.24048455  1
  O  O332  1  0.74390256  0.76937198  0.13940525  1
  C  C333  1  0.74272090  0.93880723  0.23203252  1
  C  C334  1  0.69960767  0.96839101  0.24475341  1
  C  C335  1  0.54548289  0.75451162  0.24941463  1
  C  C336  1  0.96545809  0.75629848  0.21884133  1
  H  H337  1  0.93987480  0.75755036  0.18446258  1
  O  O338  1  0.77800365  0.85581421  0.22837810  1
  H  H339  1  0.82238562  0.93491811  0.21150842  1
  Zn  Zn340  1  0.78677087  0.77605349  0.20481055  1
  H  H341  1  0.76705167  0.80480993  0.05799062  1
  C  C342  1  0.75840517  0.76998645  0.03432669  1
  C  C343  1  0.78927565  0.96132763  0.21676434  1
  C  C344  1  0.73655826  0.59448891  0.26632508  1
  O  O345  1  0.74037425  0.74165131  0.25567838  1
  C  C346  1  0.74135722  0.53924945  0.26568788  1
  C  C347  1  0.60117464  0.74445846  0.25185547  1
  O  O348  1  0.76079618  0.71714810  0.38187340  1
  C  C349  1  0.77039702  0.72560998  0.48325384  1
  H  H350  1  0.79010382  0.69607289  0.46336373  1
  Zn  Zn351  1  0.77893256  0.70176071  0.30296966  1
  H  H352  1  0.94781887  0.73928311  0.34512485  1
  C  C353  1  0.96790392  0.74367209  0.30840874  1
  H  H354  1  0.81112264  0.53561460  0.30521403  1
  C  C355  1  0.78320833  0.51412387  0.28650235  1
  O  O356  1  0.85299704  0.73731329  0.29444601  1
  O  O357  1  0.76690208  0.62182405  0.29081299  1
  C  C358  1  0.93932942  0.74598080  0.26432725  1
  C  C359  1  0.88334606  0.74432975  0.25817342  1
  O  O360  1  0.71023991  0.78231334  0.37554371  1
  H  H361  1  0.68934321  0.82592764  0.46355566  1
  H  H362  1  0.54327426  0.77366693  0.33046422  1
  C  C363  1  0.52149446  0.76672142  0.29593036  1
  O  O364  1  0.62434430  0.75261750  0.29218512  1
  H  H365  1  0.66562653  0.94781453  0.25342401  1
  Zn  Zn366  1  0.69895779  0.78888363  0.29154485  1
  C  C367  1  0.71232908  0.79601923  0.48484672  1
  C  C368  1  0.73910020  0.75891083  0.45742259  1
  C  C369  1  0.73516111  0.75290866  0.40150235  1
  O  O370  1  0.70179323  0.86639998  0.26031110  1
  O  O371  1  0.63704522  0.74630898  0.71954234  1
  O  O372  1  0.71929446  0.62894855  0.74888535  1
  C  C373  1  0.75625570  0.54635412  0.74521654  1
  C  C374  1  0.75770401  0.60374762  0.73964901  1
  O  O375  1  0.77687637  0.72955690  0.63575933  1
  C  C376  1  0.77344298  0.72730070  0.53539869  1
  H  H377  1  0.79441189  0.69941579  0.55673391  1
  Zn  Zn378  1  0.80006802  0.71156772  0.71064408  1
  H  H379  1  0.82872064  0.54080858  0.70486112  1
  C  C380  1  0.79805472  0.52029500  0.72566920  1
  H  H381  1  0.95472189  0.70718893  0.68631406  1
  C  C382  1  0.97848948  0.72274661  0.71673372  1
  O  O383  1  0.88025914  0.73257506  0.71862327  1
  O  O384  1  0.79698139  0.62428816  0.72672904  1
  H  H385  1  0.69756111  0.82998817  0.56144247  1
  C  C386  1  0.71485698  0.79939973  0.53671429  1
  C  C387  1  0.53264873  0.76469527  0.71133914  1
  C  C388  1  0.74222101  0.76205302  0.56104542  1
  H  H389  1  0.55452111  0.77147588  0.67813637  1
  O  O390  1  0.71943303  0.79193502  0.64111811  1
  Zn  Zn391  1  0.70523917  0.79511158  0.72557883  1
  C  C392  1  0.74487326  0.75936082  0.61721858  1
  Zn  Zn393  1  0.71125612  0.70060066  0.79467582  1
  H  H394  1  0.54686853  0.71664029  0.83267994  1
  H  H395  1  0.71146649  0.65379505  0.95808611  1
  C  C396  1  0.72821132  0.68544797  0.97940007  1
  C  C397  1  0.52762140  0.73138945  0.79870504  1
  H  H398  1  0.68387285  0.54877292  0.78092097  1
  C  C399  1  0.71507343  0.52363388  0.76837178  1
  O  O400  1  0.74121817  0.69349746  0.87242322  1
  O  O401  1  0.63220530  0.71654807  0.79708227  1
  C  C402  1  0.55567023  0.74479910  0.75568110  1
  C  C403  1  0.61178593  0.73566269  0.75799575  1
  C  C404  1  0.75185912  0.72728343  0.95419628  1
  C  C405  1  0.75819846  0.73028627  0.89852876  1
  O  O406  1  0.75410445  0.74623586  0.75477925  1
  C  C407  1  0.95855515  0.74424199  0.75955378  1
  C  C408  1  0.90187194  0.74418705  0.75935802  1
  O  O409  1  0.71482080  0.86466156  0.76992747  1
  C  C410  1  0.71731078  0.96492091  0.75742241  1
  H  H411  1  0.68195762  0.94179756  0.75200610  1
  O  O412  1  0.79420603  0.86402929  0.79198980  1
  O  O413  1  0.87847987  0.75869064  0.79892866  1
  C  C414  1  0.98426092  0.75717424  0.80488173  1
  H  H415  1  0.96263933  0.76676569  0.84047863  1
  C  C416  1  0.76365089  0.94392760  0.77153283  1
  C  C417  1  0.76732017  0.76932191  0.98283507  1
  H  H418  1  0.78093358  0.80151885  0.96317069  1
  C  C419  1  0.80752233  0.97085912  0.78355473  1
  C  C420  1  0.75536510  0.88779723  0.77633935  1
  O  O421  1  0.78519900  0.76479886  0.88083495  1
  H  H422  1  0.83970543  0.94955033  0.79687101  1
  Zn  Zn423  1  0.80202974  0.77964873  0.80407962  1
