# generated using pymatgen
data_Zn4H12C24O13
_symmetry_space_group_name_H-M   'P 1'
_cell_length_a   26.35964405
_cell_length_b   25.87374598
_cell_length_c   23.22534505
_cell_angle_alpha   90.00000000
_cell_angle_beta   90.00000000
_cell_angle_gamma   90.00000000
_symmetry_Int_Tables_number   1
_chemical_formula_structural   Zn4H12C24O13
_chemical_formula_sum   'Zn32 H96 C192 O104'
_cell_volume   15840.21333432
_cell_formula_units_Z   8
loop_
 _symmetry_equiv_pos_site_id
 _symmetry_equiv_pos_as_xyz
  1  'x, y, z'
loop_
 _atom_site_type_symbol
 _atom_site_label
 _atom_site_symmetry_multiplicity
 _atom_site_fract_x
 _atom_site_fract_y
 _atom_site_fract_z
 _atom_site_occupancy
  C  C0  1  0.20375791  0.22753295  0.01058402  1
  H  H1  1  0.16954626  0.22787327  0.03630514  1
  H  H2  1  0.04189657  0.25634893  0.19155443  1
  Zn  Zn3  1  0.19380631  0.27359402  0.19542156  1
  O  O4  1  0.19177231  0.29313722  0.10099730  1
  C  C5  1  0.02397675  0.28780923  0.21572590  1
  C  C6  1  0.23024284  0.30331885  0.07105782  1
  O  O7  1  0.23238455  0.42754818  0.18799546  1
  O  O8  1  0.24333864  0.31740613  0.23282298  1
  C  C9  1  0.23729328  0.45356132  0.23262026  1
  C  C10  1  0.24050965  0.26333503  0.02473044  1
  O  O11  1  0.24822650  0.20896296  0.19159736  1
  H  H12  1  0.24633133  0.13143782  0.14072788  1
  H  H13  1  0.24995647  0.02979514  0.12200113  1
  O  O14  1  0.12755717  0.27569886  0.24008772  1
  C  C15  1  0.25259687  0.10236221  0.17326810  1
  C  C16  1  0.25526978  0.04878018  0.16562374  1
  O  O17  1  0.26094936  0.33980829  0.08046262  1
  C  C18  1  0.26845620  0.02156717  0.21619600  1
  C  C19  1  0.26244036  0.18126782  0.23446337  1
  C  C20  1  0.26423610  0.12430099  0.22693734  1
  C  C21  1  0.28852449  0.25973522  0.00150769  1
  O  O22  1  0.35375159  0.38086431  0.19805918  1
  Zn  Zn23  1  0.27794086  0.35904974  0.16871183  1
  O  O24  1  0.37152830  0.30374879  0.23075345  1
  C  C25  1  0.38565765  0.34696893  0.21303304  1
  C  C26  1  0.47073132  0.31847945  0.24536918  1
  C  C27  1  0.46491407  0.39965713  0.19598811  1
  H  H28  1  0.44152416  0.43054417  0.17740300  1
  C  C29  1  0.44091134  0.35591575  0.21728674  1
  H  H30  1  0.32142701  0.28382324  0.01441507  1
  C  C31  1  0.21893428  0.26050514  0.47033409  1
  Zn  Zn32  1  0.20638039  0.35505513  0.30002845  1
  H  H33  1  0.18172126  0.27942351  0.46152535  1
  O  O34  1  0.21992462  0.33399918  0.38498782  1
  O  O35  1  0.12371812  0.34600636  0.29704101  1
  O  O36  1  0.23449047  0.43367147  0.28187287  1
  H  H37  1  0.04621339  0.38212029  0.31388035  1
  C  C38  1  0.02230404  0.35667148  0.28469085  1
  C  C39  1  0.10432684  0.31403128  0.26666284  1
  C  C40  1  0.05048045  0.31845613  0.25585038  1
  Zn  Zn41  1  0.30023873  0.28134138  0.27023620  1
  C  C42  1  0.27390863  0.09679754  0.27783045  1
  O  O43  1  0.27146702  0.20433002  0.28168333  1
  H  H44  1  0.28138439  0.11635936  0.31868499  1
  C  C45  1  0.27474266  0.04390453  0.27153870  1
  H  H46  1  0.28179154  0.02074113  0.31050775  1
  H  H47  1  0.34193640  0.24505450  0.42050598  1
  C  C48  1  0.30933260  0.23924184  0.44979681  1
  O  O49  1  0.29878424  0.31734261  0.36059615  1
  C  C50  1  0.26271067  0.31024886  0.39325242  1
  C  C51  1  0.26496990  0.26939939  0.43997484  1
  C  C52  1  0.31415713  0.20313930  0.49185492  1
  H  H53  1  0.35000168  0.18014965  0.49731047  1
  H  H54  1  0.45403892  0.28423797  0.26333624  1
  Zn  Zn55  1  0.21805586  0.17127128  0.68538060  1
  O  O56  1  0.22516330  0.14518076  0.59481053  1
  C  C57  1  0.04171401  0.16670960  0.70624319  1
  H  H58  1  0.06466034  0.17600639  0.66911381  1
  H  H59  1  0.18834534  0.21082431  0.53675272  1
  C  C60  1  0.22214724  0.22142557  0.51212327  1
  O  O61  1  0.22569330  0.02720681  0.73600946  1
  O  O62  1  0.14248318  0.15235646  0.70173054  1
  C  C63  1  0.11917363  0.13550675  0.74570903  1
  C  C64  1  0.22883319  0.41395728  0.66204386  1
  H  H65  1  0.21711542  0.42984382  0.62061724  1
  C  C66  1  0.23816285  0.44460508  0.71099024  1
  C  C67  1  0.24992819  0.33798278  0.71775438  1
  C  C68  1  0.24060149  0.36227766  0.66630201  1
  H  H69  1  0.23774901  0.33965561  0.62669844  1
  O  O70  1  0.24942934  0.25066289  0.67709631  1
  C  C71  1  0.25300841  0.00234118  0.70190394  1
  C  C72  1  0.25920726  0.27937684  0.71794831  1
  C  C73  1  0.26631749  0.15560831  0.56742085  1
  C  C74  1  0.26844966  0.19508133  0.52180753  1
  C  C75  1  0.41311975  0.15284614  0.71315345  1
  O  O76  1  0.39301119  0.11223837  0.69561056  1
  O  O77  1  0.30408109  0.13186015  0.58358142  1
  C  C78  1  0.46985406  0.15472755  0.71030619  1
  C  C79  1  0.49699999  0.11126202  0.68937665  1
  O  O80  1  0.29344974  0.02119207  0.68066613  1
  H  H81  1  0.47529890  0.07483840  0.67743814  1
  Zn  Zn82  1  0.31231350  0.10121995  0.67215039  1
  O  O83  1  0.39007533  0.18838672  0.73952591  1
  O  O84  1  0.27512076  0.14065297  0.73444297  1
  H  H85  1  0.46699574  0.23469058  0.74382945  1
  C  C86  1  0.49176894  0.20154861  0.72703254  1
  H  H87  1  0.17923618  0.16859282  0.95383233  1
  C  C88  1  0.20977634  0.19339955  0.96586963  1
  Zn  Zn89  1  0.22674755  0.10283178  0.78719577  1
  C  C90  1  0.03449346  0.12176543  0.79898245  1
  H  H91  1  0.04866187  0.09621593  0.83219321  1
  O  O92  1  0.14271083  0.11058961  0.78416410  1
  O  O93  1  0.22496951  0.13232216  0.87070153  1
  C  C94  1  0.24464294  0.41958526  0.76530620  1
  C  C95  1  0.06381449  0.13969717  0.75343665  1
  H  H96  1  0.25458872  0.34791755  0.81088471  1
  H  H97  1  0.25043625  0.44118213  0.80486692  1
  C  C98  1  0.25235725  0.36771090  0.76900018  1
  O  O99  1  0.27487922  0.26168745  0.76527553  1
  C  C100  1  0.25660704  0.19296582  0.93677199  1
  O  O101  1  0.30586250  0.15475720  0.86407017  1
  Zn  Zn102  1  0.31484751  0.18831550  0.77663325  1
  C  C103  1  0.26334904  0.15562117  0.88919416  1
  H  H104  1  0.33626267  0.22142041  0.93568737  1
  C  C105  1  0.29711295  0.22431527  0.95606265  1
  O  O106  1  0.22933035  0.69935070  0.17109252  1
  H  H107  1  0.22363345  0.51538417  0.13890764  1
  C  C108  1  0.23392204  0.53759818  0.17769325  1
  H  H109  1  0.17206256  0.74476745  0.00391306  1
  C  C110  1  0.24205018  0.51130484  0.22994495  1
  H  H111  1  0.05952968  0.75483291  0.19246871  1
  Zn  Zn112  1  0.21730967  0.77929841  0.16092284  1
  O  O113  1  0.20311420  0.81079547  0.07820134  1
  C  C114  1  0.23867716  0.81493809  0.04407448  1
  C  C115  1  0.03883195  0.78921993  0.20500881  1
  O  O116  1  0.14216974  0.78357527  0.21497261  1
  C  C117  1  0.12141846  0.82548310  0.22888838  1
  C  C118  1  0.06664813  0.83266594  0.22538698  1
  C  C119  1  0.23093376  0.59063046  0.17837820  1
  C  C120  1  0.24223134  0.62170087  0.22729193  1
  C  C121  1  0.24520409  0.67976441  0.21803383  1
  H  H122  1  0.22173657  0.60830074  0.13375517  1
  C  C123  1  0.04081503  0.87611454  0.24714975  1
  O  O124  1  0.14639980  0.86218868  0.24910428  1
  C  C125  1  0.27230843  0.96307770  0.21604921  1
  O  O126  1  0.26320390  0.93823728  0.17055088  1
  O  O127  1  0.27656635  0.84417032  0.05806877  1
  C  C128  1  0.48113434  0.88941627  0.18852669  1
  C  C129  1  0.40048207  0.83920966  0.18811015  1
  H  H130  1  0.46002890  0.92159888  0.16546125  1
  O  O131  1  0.26356138  0.82581234  0.20581543  1
  Zn  Zn132  1  0.29903398  0.86415261  0.14227801  1
  C  C133  1  0.45544200  0.84251631  0.19944087  1
  O  O134  1  0.37907876  0.87873268  0.16854900  1
  O  O135  1  0.37859879  0.79534783  0.19740475  1
  C  C136  1  0.47719398  0.79762875  0.22489651  1
  H  H137  1  0.45465560  0.76202236  0.23198244  1
  Zn  Zn138  1  0.31306440  0.77889275  0.24446099  1
  C  C139  1  0.20110489  0.73732442  0.48084972  1
  H  H140  1  0.18507221  0.80341971  0.42631796  1
  Zn  Zn141  1  0.22613438  0.86779695  0.26237669  1
  H  H142  1  0.07144679  0.90387411  0.25824444  1
  C  C143  1  0.21323918  0.77206926  0.43754509  1
  O  O144  1  0.23482599  0.84331829  0.34840391  1
  C  C145  1  0.23597212  0.69916028  0.49542870  1
  C  C146  1  0.25340992  0.54159629  0.27961069  1
  O  O147  1  0.30971621  0.81018647  0.33685500  1
  C  C148  1  0.26872116  0.80895673  0.36054464  1
  H  H149  1  0.25873674  0.52249573  0.32249943  1
  C  C150  1  0.25601453  0.59601133  0.27899475  1
  H  H151  1  0.26713188  0.61645199  0.31900627  1
  C  C152  1  0.28213556  0.69648047  0.46441209  1
  C  C153  1  0.29262630  0.73079944  0.42049188  1
  H  H154  1  0.32983096  0.73285505  0.40110363  1
  H  H155  1  0.30960513  0.66786174  0.48224813  1
  O  O156  1  0.27606712  0.93782373  0.26226223  1
  C  C157  1  0.25767721  0.76886318  0.40462710  1
  O  O158  1  0.26482336  0.70772163  0.25591895  1
  O  O159  1  0.19290542  0.66422577  0.57602125  1
  Zn  Zn160  1  0.18450832  0.67985621  0.67082372  1
  H  H161  1  0.03909029  0.64796863  0.65140502  1
  O  O162  1  0.11779460  0.63801604  0.68529092  1
  C  C163  1  0.01705672  0.64952996  0.69219091  1
  C  C164  1  0.23088286  0.66127698  0.54472212  1
  C  C165  1  0.10049942  0.62890170  0.73427637  1
  C  C166  1  0.04545557  0.64093692  0.74231609  1
  H  H167  1  0.16394806  0.74268051  0.50090926  1
  C  C168  1  0.23824521  0.50218154  0.71131235  1
  C  C169  1  0.22797151  0.84363792  0.68641675  1
  C  C170  1  0.22455201  0.78610631  0.68524825  1
  O  O171  1  0.18516728  0.76217420  0.69946570  1
  C  C172  1  0.19117371  0.87260150  0.71613178  1
  H  H173  1  0.16660299  0.94825398  0.73825009  1
  C  C174  1  0.19764875  0.92482787  0.71768204  1
  H  H175  1  0.15783264  0.85502259  0.73510909  1
  O  O176  1  0.24248191  0.64198345  0.69702540  1
  C  C177  1  0.24236401  0.94640013  0.69281647  1
  O  O178  1  0.23548900  0.52422792  0.66303063  1
  H  H179  1  0.29817184  0.83947636  0.63672911  1
  O  O180  1  0.26439955  0.62661904  0.55372019  1
  O  O181  1  0.36077882  0.67768101  0.66091622  1
  O  O182  1  0.35784335  0.59234235  0.65337003  1
  C  C183  1  0.38110302  0.63248150  0.66453402  1
  C  C184  1  0.43527311  0.63475656  0.68356296  1
  C  C185  1  0.45679900  0.68400273  0.69553603  1
  H  H186  1  0.43391854  0.71943350  0.69114689  1
  Zn  Zn187  1  0.27307189  0.59374728  0.63602992  1
  C  C188  1  0.46553740  0.59133812  0.68842155  1
  H  H189  1  0.44973447  0.55442587  0.67899086  1
  Zn  Zn190  1  0.29581455  0.69353110  0.71687607  1
  C  C191  1  0.27134288  0.86581660  0.66064696  1
  H  H192  1  0.31094015  0.93763872  0.64113166  1
  C  C193  1  0.27736598  0.91867772  0.66026315  1
  O  O194  1  0.26133099  0.76118782  0.66556483  1
  H  H195  1  0.03912969  0.63794765  0.83351966  1
  C  C196  1  0.01717287  0.64030201  0.79378667  1
  H  H197  1  0.19103148  0.68486595  0.91298190  1
  O  O198  1  0.12840574  0.61827290  0.77463737  1
  Zn  Zn199  1  0.21729167  0.60636989  0.76944044  1
  C  C200  1  0.21486408  0.71884236  0.92605521  1
  C  C201  1  0.20492559  0.74847495  0.97492369  1
  O  O202  1  0.23310680  0.65182636  0.83731911  1
  O  O203  1  0.24322848  0.52676024  0.75745117  1
  C  C204  1  0.24307604  0.78560144  0.98932327  1
  C  C205  1  0.25999647  0.72332908  0.89300325  1
  O  O206  1  0.30159451  0.69723546  0.80877352  1
  C  C207  1  0.26492018  0.68909799  0.84307555  1
  H  H208  1  0.31420027  0.82201225  0.96854913  1
  H  H209  1  0.33500530  0.76146720  0.88496384  1
  C  C210  1  0.29799536  0.75854753  0.91084421  1
  C  C211  1  0.28689457  0.79110747  0.95661705  1
  O  O212  1  0.68373975  0.24468563  0.16549232  1
  H  H213  1  0.65401323  0.23874439  0.06371134  1
  C  C214  1  0.68740760  0.21840425  0.04530643  1
  C  C215  1  0.72593814  0.23088965  0.14467898  1
  C  C216  1  0.72639474  0.20847456  0.08418507  1
  Zn  Zn217  1  0.70779714  0.40715723  0.17865304  1
  C  C218  1  0.54762938  0.36875013  0.22724621  1
  H  H219  1  0.53555374  0.43779241  0.18060406  1
  O  O220  1  0.62666472  0.40570094  0.20382975  1
  C  C221  1  0.60380238  0.37048132  0.23147386  1
  Zn  Zn222  1  0.69767338  0.29657202  0.24299623  1
  C  C223  1  0.51726725  0.40418304  0.19872719  1
  O  O224  1  0.71520581  0.40231959  0.09101520  1
  O  O225  1  0.74679341  0.34706201  0.22004188  1
  C  C226  1  0.73519736  0.36533509  0.06277701  1
  C  C227  1  0.71005529  0.34793914  0.00846201  1
  H  H228  1  0.65457942  0.41078050  0.01128328  1
  C  C229  1  0.94694506  0.33355149  0.23316859  1
  O  O230  1  0.76600185  0.46136125  0.20280302  1
  Zn  Zn231  1  0.79816843  0.31776759  0.16349659  1
  C  C232  1  0.77369052  0.16538620  0.00621042  1
  H  H233  1  0.80026681  0.17984385  0.09475686  1
  C  C234  1  0.76976953  0.18428812  0.06228989  1
  O  O235  1  0.76704445  0.23873795  0.16920686  1
  C  C236  1  0.97267739  0.29369461  0.20533690  1
  O  O237  1  0.87409852  0.32069075  0.17030800  1
  O  O238  1  0.77420711  0.34274340  0.07847952  1
  C  C239  1  0.89198043  0.34172776  0.21535317  1
  H  H240  1  0.95074306  0.26973348  0.17683969  1
  O  O241  1  0.86345647  0.37163664  0.24290117  1
  H  H242  1  0.68511700  0.20872224  0.40944635  1
  C  C243  1  0.71412594  0.22269722  0.44035055  1
  C  C244  1  0.71989318  0.19670377  0.49116453  1
  O  O245  1  0.70992807  0.28053667  0.33110233  1
  O  O246  1  0.62660376  0.33487186  0.25770314  1
  H  H247  1  0.54862165  0.29836514  0.27073296  1
  C  C248  1  0.74338084  0.29049698  0.36712412  1
  C  C249  1  0.74693593  0.26334998  0.42294937  1
  C  C250  1  0.52240922  0.32583776  0.25083192  1
  H  H251  1  0.81656413  0.30238037  0.44597420  1
  O  O252  1  0.75829326  0.45625579  0.29597103  1
  C  C253  1  0.76242477  0.48379762  0.25126195  1
  O  O254  1  0.77700214  0.32464140  0.35460423  1
  C  C255  1  0.97154429  0.36462639  0.27500305  1
  H  H256  1  0.94757643  0.39489499  0.29626716  1
  Zn  Zn257  1  0.78863583  0.37476518  0.28355251  1
  C  C258  1  0.78728722  0.27663954  0.46029991  1
  H  H259  1  0.57519223  0.08584236  0.67235545  1
  C  C260  1  0.62998320  0.16601236  0.70162254  1
  O  O261  1  0.65424904  0.12410312  0.69164614  1
  C  C262  1  0.57277692  0.16363655  0.70251777  1
  C  C263  1  0.54968435  0.11686042  0.68911256  1
  Zn  Zn264  1  0.73537507  0.13035388  0.69180620  1
  O  O265  1  0.65293771  0.20537323  0.71884312  1
  C  C266  1  0.54431604  0.20435582  0.72691639  1
  H  H267  1  0.69270706  0.16611024  0.50202638  1
  O  O268  1  0.74700572  0.14948427  0.60345931  1
  H  H269  1  0.56475287  0.23773739  0.74902181  1
  C  C270  1  0.79371679  0.25359565  0.51288140  1
  C  C271  1  0.75977281  0.21276477  0.52721273  1
  O  O272  1  0.76470475  0.05223464  0.70171440  1
  C  C273  1  0.79224887  0.45397970  0.73209986  1
  C  C274  1  0.77141877  0.18656432  0.58245741  1
  O  O275  1  0.80859938  0.20565008  0.60985921  1
  Zn  Zn276  1  0.80978896  0.22255043  0.70211059  1
  O  O277  1  0.88521285  0.18566739  0.71200235  1
  H  H278  1  0.97364271  0.18876850  0.66812688  1
  C  C279  1  0.99005877  0.17115042  0.70537617  1
  C  C280  1  0.77489909  0.03009981  0.74846430  1
  H  H281  1  0.82954307  0.38587945  0.70313506  1
  H  H282  1  0.82545301  0.25991584  0.54264351  1
  H  H283  1  0.80402696  0.47943536  0.69728155  1
  C  C284  1  0.80326773  0.40151738  0.73622042  1
  O  O285  1  0.82041099  0.29489041  0.73292509  1
  O  O286  1  0.76463141  0.17635332  0.74830689  1
  O  O287  1  0.70690201  0.17421994  0.86722433  1
  H  H288  1  0.66050320  0.21086416  0.96106789  1
  O  O289  1  0.64645953  0.24989699  0.83338157  1
  Zn  Zn290  1  0.71275053  0.22144420  0.78539455  1
  H  H291  1  0.72297086  0.25578464  0.90446489  1
  C  C292  1  0.63448521  0.29329001  0.85564577  1
  C  C293  1  0.70801256  0.28860931  0.92864886  1
  C  C294  1  0.64645999  0.35780941  0.93690618  1
  C  C295  1  0.66243337  0.31249009  0.90989063  1
  C  C296  1  0.66859728  0.37654828  0.98791321  1
  O  O297  1  0.59644464  0.31522453  0.83938381  1
  H  H298  1  0.61862681  0.38197681  0.91508877  1
  C  C299  1  0.73289872  0.30782314  0.97478149  1
  H  H300  1  0.71488213  0.45913722  0.85275150  1
  C  C301  1  0.74940909  0.38933851  0.82368330  1
  C  C302  1  0.74058831  0.44184504  0.81976375  1
  H  H303  1  0.73406079  0.36406373  0.85898606  1
  C  C304  1  0.73432848  0.17663220  0.96679394  1
  C  C305  1  0.69077498  0.20033140  0.98975480  1
  C  C306  1  0.74213866  0.16716919  0.90261079  1
  C  C307  1  0.75761052  0.47374858  0.77340149  1
  O  O308  1  0.78444844  0.14988055  0.89140535  1
  H  H309  1  0.80978559  0.14785617  0.99530156  1
  C  C310  1  0.98337794  0.13280932  0.80006154  1
  H  H311  1  0.96249309  0.12283508  0.84035369  1
  O  O312  1  0.78979793  0.05291011  0.79325918  1
  Zn  Zn313  1  0.79883116  0.13208064  0.79817880  1
  O  O314  1  0.87854364  0.15596653  0.79990563  1
  C  C315  1  0.95922573  0.15514411  0.75312028  1
  C  C316  1  0.90448732  0.16675956  0.75584804  1
  O  O317  1  0.76852786  0.28242686  0.80858095  1
  C  C318  1  0.79006347  0.31178410  0.77370634  1
  C  C319  1  0.78100480  0.36861359  0.77880668  1
  H  H320  1  0.76682980  0.28924485  0.99366897  1
  C  C321  1  0.68440591  0.77522806  0.03572223  1
  H  H322  1  0.64945795  0.79225950  0.05625008  1
  Zn  Zn323  1  0.71447333  0.88181786  0.20816878  1
  O  O324  1  0.69999452  0.85442042  0.12416787  1
  C  C325  1  0.53124340  0.89271854  0.20604872  1
  H  H326  1  0.55387489  0.92911519  0.20411383  1
  O  O327  1  0.63485990  0.88735233  0.23709881  1
  C  C328  1  0.55232260  0.84994010  0.23259909  1
  C  C329  1  0.73233627  0.79462396  0.05500776  1
  C  C330  1  0.73842273  0.83522898  0.10003563  1
  O  O331  1  0.74753912  0.72958805  0.20792576  1
  C  C332  1  0.52743238  0.80303157  0.24453835  1
  C  C333  1  0.96100530  0.83824023  0.22799958  1
  C  C334  1  0.90489598  0.84084197  0.23166284  1
  C  C335  1  0.76436923  0.56860223  0.20250251  1
  C  C336  1  0.75859271  0.62191400  0.20119798  1
  H  H337  1  0.75996154  0.64729405  0.16181671  1
  H  H338  1  0.76695556  0.54980897  0.16027931  1
  Zn  Zn339  1  0.79608291  0.79409992  0.20194624  1
  C  C340  1  0.98700782  0.79488194  0.20564271  1
  C  C341  1  0.77731001  0.77992737  0.02483090  1
  H  H342  1  0.96555605  0.76343560  0.18695238  1
  O  O343  1  0.88004487  0.80363670  0.20916784  1
  O  O344  1  0.78170090  0.84038007  0.12177815  1
  H  H345  1  0.81464529  0.79666631  0.03676482  1
  C  C346  1  0.70141165  0.79771418  0.47414957  1
  H  H347  1  0.66827111  0.81678119  0.45298288  1
  Zn  Zn348  1  0.70412360  0.80453346  0.29917797  1
  O  O349  1  0.71587852  0.85888316  0.38186904  1
  O  O350  1  0.62431655  0.81169366  0.27719645  1
  C  C351  1  0.74406013  0.70428912  0.25602626  1
  H  H352  1  0.54848918  0.77134758  0.26666941  1
  O  O353  1  0.73278496  0.72672656  0.30115276  1
  H  H354  1  0.73731983  0.64002346  0.34502667  1
  C  C355  1  0.74803625  0.61864079  0.30701956  1
  C  C356  1  0.60594016  0.84984318  0.25177551  1
  H  H357  1  0.75053076  0.54505145  0.34925440  1
  C  C358  1  0.75208577  0.56620618  0.30826847  1
  C  C359  1  0.76056167  0.54108931  0.25356198  1
  C  C360  1  0.75060211  0.64678382  0.25445575  1
  C  C361  1  0.79321070  0.78365242  0.48195444  1
  O  O362  1  0.79917323  0.85212880  0.38410778  1
  C  C363  1  0.75580219  0.84268938  0.40501558  1
  C  C364  1  0.75078995  0.80432831  0.45501442  1
  O  O365  1  0.88523189  0.87762968  0.25780976  1
  H  H366  1  0.83150028  0.79169719  0.46617337  1
  H  H367  1  0.96928582  0.91031771  0.27477373  1
  Zn  Zn368  1  0.81263279  0.87929192  0.30227493  1
  C  C369  1  0.98907008  0.87871612  0.25176910  1
  O  O370  1  0.76033294  0.84021535  0.25808540  1
  O  O371  1  0.68883826  0.69763889  0.62129819  1
  H  H372  1  0.65557546  0.75726497  0.53813039  1
  Zn  Zn373  1  0.68215244  0.71176836  0.71452125  1
  C  C374  1  0.69331580  0.76395672  0.52066658  1
  C  C375  1  0.50591660  0.69080593  0.71464177  1
  H  H376  1  0.52218890  0.73015279  0.72380829  1
  C  C377  1  0.51453829  0.59691227  0.70878251  1
  O  O378  1  0.73966259  0.78701565  0.70604549  1
  C  C379  1  0.53575755  0.64644821  0.72209107  1
  O  O380  1  0.60356139  0.70058271  0.74569628  1
  C  C381  1  0.58992087  0.65296756  0.73852856  1
  O  O382  1  0.62082655  0.61871873  0.74898608  1
  H  H383  1  0.73537768  0.86916782  0.66280222  1
  C  C384  1  0.72900180  0.70068086  0.59349804  1
  H  H385  1  0.74374556  0.97108468  0.66413253  1
  C  C386  1  0.74909907  0.89364274  0.69908949  1
  C  C387  1  0.73562193  0.74062604  0.54651417  1
  H  H388  1  0.53750949  0.56479448  0.72258553  1
  C  C389  1  0.88135378  0.66384087  0.74282411  1
  C  C390  1  0.75346391  0.94724651  0.70123983  1
  C  C391  1  0.93720689  0.65801843  0.74258906  1
  O  O392  1  0.76524027  0.55523727  0.72948413  1
  C  C393  1  0.96460020  0.65694380  0.69172044  1
  H  H394  1  0.94286609  0.66004383  0.64978945  1
  O  O395  1  0.85675708  0.66212762  0.69630463  1
  Zn  Zn396  1  0.77593609  0.63645434  0.69838515  1
  H  H397  1  0.81898959  0.73342787  0.54693722  1
  O  O398  1  0.76888953  0.68031150  0.61013440  1
  C  C399  1  0.78538147  0.75085919  0.52711587  1
  C  C400  1  0.75454986  0.80901458  0.74973345  1
  Zn  Zn401  1  0.69112084  0.62935524  0.81164834  1
  O  O402  1  0.68502599  0.66107173  0.89875558  1
  H  H403  1  0.64378283  0.72277542  0.98173338  1
  C  C404  1  0.72749099  0.72056650  0.96512175  1
  C  C405  1  0.72414756  0.68242146  0.91643806  1
  O  O406  1  0.71083083  0.54913957  0.79977412  1
  C  C407  1  0.68222590  0.73629459  0.99465755  1
  C  C408  1  0.74309210  0.52875694  0.76731410  1
  O  O409  1  0.73358537  0.67103377  0.75926025  1
  H  H410  1  0.79130824  0.87018587  0.83829277  1
  H  H411  1  0.94918389  0.64948188  0.83791301  1
  O  O412  1  0.85990963  0.67670086  0.78856092  1
  H  H413  1  0.80663382  0.73363053  0.95129743  1
  C  C414  1  0.77546897  0.74432178  0.97920094  1
  Zn  Zn415  1  0.78511603  0.70319638  0.80795865  1
  C  C416  1  0.96613636  0.65080237  0.79434697  1
  O  O417  1  0.76563545  0.67118177  0.89285172  1
  C  C418  1  0.78530858  0.94439997  0.79893074  1
  O  O419  1  0.76674518  0.78486657  0.79548537  1
  C  C420  1  0.77820864  0.89198165  0.80103469  1
  H  H421  1  0.80343979  0.96419928  0.83596789  1
  C  C422  1  0.76035895  0.86766106  0.75065356  1
  C  C423  1  0.77180453  0.97195721  0.75073639  1
