# generated using pymatgen
data_ZnH2(C5O4)2
_symmetry_space_group_name_H-M   'P 1'
_cell_length_a   27.15093864
_cell_length_b   16.42083134
_cell_length_c   19.64413046
_cell_angle_alpha   90.00000000
_cell_angle_beta   90.00000000
_cell_angle_gamma   90.00000000
_symmetry_Int_Tables_number   1
_chemical_formula_structural   ZnH2(C5O4)2
_chemical_formula_sum   'Zn16 H32 C160 O128'
_cell_volume   8758.15845299
_cell_formula_units_Z   16
loop_
 _symmetry_equiv_pos_site_id
 _symmetry_equiv_pos_as_xyz
  1  'x, y, z'
loop_
 _atom_site_type_symbol
 _atom_site_label
 _atom_site_symmetry_multiplicity
 _atom_site_fract_x
 _atom_site_fract_y
 _atom_site_fract_z
 _atom_site_occupancy
  O  O0  1  0.22234399  0.20903205  0.14788442  1
  O  O1  1  0.21144121  0.46193138  0.17141581  1
  O  O2  1  0.22210750  0.39073582  0.07963591  1
  C  C3  1  0.23930257  0.42328883  0.13292194  1
  O  O4  1  0.07961161  0.33362456  0.02743742  1
  Zn  Zn5  1  0.22502154  0.25500479  0.04809578  1
  O  O6  1  0.14594154  0.26188354  0.03431307  1
  O  O7  1  0.24875955  0.24497843  0.24552625  1
  C  C8  1  0.11576509  0.30431724  0.00049940  1
  C  C9  1  0.25622341  0.21046748  0.19306410  1
  O  O10  1  0.26069232  0.12528245  0.04900086  1
  O  O11  1  0.47260122  0.02129102  0.22540279  1
  O  O12  1  0.28942831  0.32390797  0.01262132  1
  O  O13  1  0.33110421  0.08041529  0.01030783  1
  C  C14  1  0.33130869  0.33687072  0.04339229  1
  C  C15  1  0.29079318  0.40607861  0.15727125  1
  H  H16  1  0.40636752  0.33742642  0.12278773  1
  C  C17  1  0.29630223  0.42759696  0.22667372  1
  O  O18  1  0.47722766  0.07528344  0.12405576  1
  C  C19  1  0.30537132  0.16704820  0.18128304  1
  C  C20  1  0.38114905  0.37673146  0.21946417  1
  C  C21  1  0.32615325  0.12635031  0.12532085  1
  C  C22  1  0.37255287  0.35740715  0.15202138  1
  C  C23  1  0.37549411  0.10103734  0.12643424  1
  O  O24  1  0.45835682  0.30801486  0.20908110  1
  C  C25  1  0.30577879  0.11509162  0.05168226  1
  C  C26  1  0.45527167  0.06496484  0.17651422  1
  C  C27  1  0.40302167  0.10675321  0.18575218  1
  C  C28  1  0.32836051  0.36992063  0.11856907  1
  C  C29  1  0.43851201  0.36665859  0.23204703  1
  H  H30  1  0.39151441  0.06803451  0.07978253  1
  O  O31  1  0.36884789  0.31713240  0.01612137  1
  C  C32  1  0.38392959  0.14740557  0.24154818  1
  C  C33  1  0.33547268  0.17584402  0.23996998  1
  H  H34  1  0.24227197  0.03377110  0.45891936  1
  O  O35  1  0.16556146  0.03678105  0.43406145  1
  C  C36  1  0.15629413  0.02087947  0.49318470  1
  H  H37  1  0.26496186  0.45475921  0.25578152  1
  H  H38  1  0.32065535  0.20722576  0.28842958  1
  C  C39  1  0.40967697  0.16426973  0.31074017  1
  O  O40  1  0.38601411  0.41572276  0.36183634  1
  O  O41  1  0.45763691  0.16154745  0.30769144  1
  O  O42  1  0.49588151  0.35015879  0.43497904  1
  Zn  Zn43  1  0.46272745  0.45788486  0.37193684  1
  C  C44  1  0.34658348  0.43160427  0.33025390  1
  O  O45  1  0.31845577  0.05970467  0.43026179  1
  O  O46  1  0.31133221  0.45893101  0.35913615  1
  O  O47  1  0.38707092  0.19488414  0.35438913  1
  O  O48  1  0.46301555  0.42080936  0.26422938  1
  C  C49  1  0.34110536  0.40980127  0.25579140  1
  C  C50  1  0.33131047  0.06194137  0.48914288  1
  O  O51  1  0.13630587  0.35391839  0.67614167  1
  O  O52  1  0.06669973  0.41684250  0.68166971  1
  C  C53  1  0.10006232  0.37221428  0.70838872  1
  C  C54  1  0.24256834  0.03943277  0.51263380  1
  C  C55  1  0.20107569  0.03113037  0.61736640  1
  C  C56  1  0.19732647  0.03238249  0.54665884  1
  C  C57  1  0.24588561  0.04540717  0.65021378  1
  O  O58  1  0.16668530  0.01628014  0.72482821  1
  O  O59  1  0.11322173  0.01766625  0.64309211  1
  C  C60  1  0.15550415  0.02032838  0.66576246  1
  H  H61  1  0.25102827  0.04899973  0.70573316  1
  C  C62  1  0.49535425  0.33431308  0.68744137  1
  O  O63  1  0.37348444  0.33703696  0.61927144  1
  O  O64  1  0.32582575  0.06677980  0.72032546  1
  C  C65  1  0.47605902  0.34626916  0.56815141  1
  C  C66  1  0.46131207  0.35051728  0.63336097  1
  C  C67  1  0.40535669  0.37214379  0.64904129  1
  C  C68  1  0.33424358  0.06914405  0.65981682  1
  O  O69  1  0.37438110  0.08281939  0.50456200  1
  H  H70  1  0.44814184  0.35551131  0.52853082  1
  C  C71  1  0.28927322  0.05135509  0.54251215  1
  O  O72  1  0.39443163  0.43186467  0.68830131  1
  C  C73  1  0.28978806  0.05278753  0.61331149  1
  O  O74  1  0.49192228  0.11513680  0.57255021  1
  Zn  Zn75  1  0.42749880  0.02953008  0.56673371  1
  O  O76  1  0.37721159  0.08181517  0.63820544  1
  C  C77  1  0.14850058  0.29375487  0.87488074  1
  C  C78  1  0.13815633  0.31257795  0.80738374  1
  C  C79  1  0.06175584  0.37038211  0.83741823  1
  C  C80  1  0.07057752  0.35815028  0.90851723  1
  C  C81  1  0.11394695  0.31869667  0.92316170  1
  H  H82  1  0.04508756  0.37713513  0.95180254  1
  C  C83  1  0.20081955  0.25663277  0.88486837  1
  O  O84  1  0.21185933  0.21754236  0.93944772  1
  O  O85  1  0.22827221  0.25537467  0.83777623  1
  C  C86  1  0.09467699  0.35232601  0.78440320  1
  C  C87  1  0.01119933  0.41206883  0.82750808  1
  H  H88  1  0.15926791  0.29999364  0.76159917  1
  O  O89  1  0.00454548  0.44323061  0.76923734  1
  O  O90  1  0.26242533  0.49402482  0.82090678  1
  C  C91  1  0.48380259  0.32559393  0.76444065  1
  O  O92  1  0.32978708  0.42701486  0.82800925  1
  C  C93  1  0.30041488  0.48210152  0.85065367  1
  Zn  Zn94  1  0.40147752  0.42162250  0.80088126  1
  O  O95  1  0.43966680  0.31616375  0.78711303  1
  O  O96  1  0.43374358  0.48150027  0.97843074  1
  O  O97  1  0.20128575  0.65252836  0.08658887  1
  Zn  Zn98  1  0.19673479  0.59335566  0.18041220  1
  C  C99  1  0.21061245  0.61541370  0.03049047  1
  O  O100  1  0.13141322  0.64220483  0.22718388  1
  C  C101  1  0.26343446  0.58507616  0.01342822  1
  C  C102  1  0.30550139  0.58719811  0.05412986  1
  O  O103  1  0.27653081  0.63285886  0.16821067  1
  H  H104  1  0.38330227  0.56764226  0.05930377  1
  C  C105  1  0.31202615  0.61267074  0.13268016  1
  O  O106  1  0.35249113  0.60272059  0.15291462  1
  C  C107  1  0.34855376  0.55639967  0.02628190  1
  H  H108  1  0.04438016  0.69009935  0.38414984  1
  C  C109  1  0.12155981  0.67330655  0.35060510  1
  C  C110  1  0.18139083  0.71640305  0.43272130  1
  C  C111  1  0.17054105  0.67683941  0.37146596  1
  C  C112  1  0.08382907  0.69899045  0.39420946  1
  C  C113  1  0.10444696  0.63752480  0.28151932  1
  C  C114  1  0.21571599  0.63545811  0.34198123  1
  O  O115  1  0.06318191  0.60772523  0.27779656  1
  C  C116  1  0.09445868  0.73293403  0.45901717  1
  O  O117  1  0.21203275  0.58319962  0.29483586  1
  C  C118  1  0.14449764  0.74775111  0.47594438  1
  H  H119  1  0.21950736  0.72186744  0.45368719  1
  O  O120  1  0.00930104  0.72953318  0.48513573  1
  O  O121  1  0.25622019  0.64823558  0.36651533  1
  O  O122  1  0.49371722  0.95418047  0.39002265  1
  O  O123  1  0.44410915  0.94353670  0.47700242  1
  O  O124  1  0.45936159  0.55569411  0.44298333  1
  C  C125  1  0.48479023  0.93699290  0.44881877  1
  O  O126  1  0.14968648  0.81870806  0.58884684  1
  Zn  Zn127  1  0.09322759  0.90677467  0.58428672  1
  O  O128  1  0.05366870  0.79477264  0.55512515  1
  C  C129  1  0.16978961  0.79100708  0.53529367  1
  O  O130  1  0.21446369  0.80046584  0.52925838  1
  O  O131  1  0.11354094  0.99916342  0.51391004  1
  C  C132  1  0.05106108  0.75446922  0.50159337  1
  O  O133  1  0.45067834  0.91088817  0.60817319  1
  O  O134  1  0.45277015  0.54298911  0.55111155  1
  C  C135  1  0.49454130  0.89116417  0.62099676  1
  C  C136  1  0.47818183  0.54589103  0.50065566  1
  O  O137  1  0.17773252  0.60099566  0.98992434  1
  H  H138  1  0.22940850  0.55375376  0.91520382  1
  C  C139  1  0.40476979  0.50753794  0.93718431  1
  C  C140  1  0.26306812  0.55406470  0.94770254  1
  C  C141  1  0.30693691  0.52380334  0.92063495  1
  O  O142  1  0.41668006  0.51160456  0.87382286  1
  C  C143  1  0.35018706  0.52960927  0.95955308  1
  C  C144  1  0.61414370  0.10543820  0.08082060  1
  C  C145  1  0.61049226  0.26093528  0.04878740  1
  O  O146  1  0.59609965  0.32902046  0.06556204  1
  C  C147  1  0.60683555  0.19111294  0.09776192  1
  C  C148  1  0.60773056  0.05239074  0.13832561  1
  C  C149  1  0.59244560  0.20982115  0.16413127  1
  H  H150  1  0.58719088  0.27648095  0.17121250  1
  C  C151  1  0.59728134  0.07199987  0.20419521  1
  C  C152  1  0.58666352  0.15438458  0.21727637  1
  C  C153  1  0.71455568  0.23582841  0.22069198  1
  C  C154  1  0.73077228  0.06533783  0.20784848  1
  C  C155  1  0.70061505  0.33009241  0.21547895  1
  O  O156  1  0.62070872  0.08035627  0.01965440  1
  O  O157  1  0.65786940  0.35554603  0.22691895  1
  C  C158  1  0.73475314  0.20728715  0.16124208  1
  C  C159  1  0.74332377  0.12169438  0.15518921  1
  O  O160  1  0.73274295  0.37161009  0.19008423  1
  H  H161  1  0.74763652  0.24797991  0.11940110  1
  O  O162  1  0.78992138  0.03592064  0.07151168  1
  C  C163  1  0.76918711  0.10818522  0.08839470  1
  O  O164  1  0.77135447  0.16230062  0.04602967  1
  O  O165  1  0.89790497  0.00758740  0.18188718  1
  Zn  Zn166  1  0.61758944  0.35965819  0.32157587  1
  C  C167  1  0.68134746  0.21845434  0.34334734  1
  C  C168  1  0.53240705  0.33013439  0.47063167  1
  O  O169  1  0.67814850  0.29265498  0.35701994  1
  O  O170  1  0.67086515  0.16668643  0.38769170  1
  H  H171  1  0.69998345  0.06555842  0.30993845  1
  O  O172  1  0.56570503  0.15997164  0.34089309  1
  O  O173  1  0.57225325  0.30629903  0.44091566  1
  Zn  Zn174  1  0.60381172  0.18562806  0.44740054  1
  C  C175  1  0.71445802  0.10391558  0.26783945  1
  O  O176  1  0.60901080  0.48729708  0.35851123  1
  C  C177  1  0.57341108  0.19682353  0.28562192  1
  O  O178  1  0.56579745  0.27079351  0.27933637  1
  Zn  Zn179  1  0.50402214  0.05818490  0.32422687  1
  H  H180  1  0.64585678  0.47176880  0.45025760  1
  C  C181  1  0.70467354  0.18645883  0.27643228  1
  C  C182  1  0.61780673  0.48829250  0.48962457  1
  O  O183  1  0.57707559  0.00492467  0.30981912  1
  O  O184  1  0.64629189  0.08588191  0.49465396  1
  O  O185  1  0.54922916  0.10465163  0.49672728  1
  H  H186  1  0.87958953  0.21271831  0.46174478  1
  O  O187  1  0.92074934  0.04714514  0.28298354  1
  O  O188  1  0.80835843  0.01039625  0.46955914  1
  C  C189  1  0.82557338  0.08309000  0.46546152  1
  O  O190  1  0.92625556  0.32862913  0.47673757  1
  O  O191  1  0.81843328  0.12498695  0.41603705  1
  C  C192  1  0.54404668  0.31703458  0.66812751  1
  C  C193  1  0.62396413  0.09411099  0.61279074  1
  C  C194  1  0.53632682  0.10466405  0.55870219  1
  O  O195  1  0.64031073  0.30154305  0.64497152  1
  C  C196  1  0.55828574  0.31468991  0.59924834  1
  C  C197  1  0.65899157  0.08526996  0.55455913  1
  O  O198  1  0.70414148  0.06614105  0.56746453  1
  C  C199  1  0.61445266  0.29537083  0.59419013  1
  C  C200  1  0.65073837  0.08923891  0.67509045  1
  C  C201  1  0.55159844  0.10145523  0.68278264  1
  C  C202  1  0.57089062  0.10179064  0.61648705  1
  H  H203  1  0.69070426  0.07954093  0.67810565  1
  H  H204  1  0.57301701  0.30942332  0.70784037  1
  C  C205  1  0.52560602  0.33249393  0.54525278  1
  C  C206  1  0.62900105  0.08898139  0.73694544  1
  C  C207  1  0.67940973  0.45123725  0.57478794  1
  O  O208  1  0.69405491  0.45453841  0.63644914  1
  O  O209  1  0.62053471  0.46799471  0.71807461  1
  O  O210  1  0.70790533  0.44617580  0.52751378  1
  C  C211  1  0.62561971  0.47903271  0.55856223  1
  O  O212  1  0.63474305  0.26088300  0.54324994  1
  H  H213  1  0.51011583  0.09639224  0.68638636  1
  C  C214  1  0.58486104  0.49866743  0.68492411  1
  C  C215  1  0.58927997  0.49714403  0.60717112  1
  C  C216  1  0.57832560  0.09901864  0.74405949  1
  O  O217  1  0.83342254  0.00547464  0.68702055  1
  O  O218  1  0.93549816  0.19827285  0.74197207  1
  C  C219  1  0.85623526  0.08739072  0.59419301  1
  H  H220  1  0.86818353  0.48107656  0.68093329  1
  C  C221  1  0.85344845  0.11824035  0.52938592  1
  O  O222  1  0.93635995  0.49560811  0.62839558  1
  C  C223  1  0.93692326  0.30777345  0.53308235  1
  C  C224  1  0.92803123  0.24130510  0.69440341  1
  C  C225  1  0.90633551  0.23543450  0.56024905  1
  O  O226  1  0.93623188  0.31742966  0.70032279  1
  C  C227  1  0.87844469  0.19084921  0.51459392  1
  C  C228  1  0.90460506  0.20788001  0.62778740  1
  O  O229  1  0.97250037  0.34284835  0.56452407  1
  H  H230  1  0.87510175  0.11780379  0.69736196  1
  C  C231  1  0.83440443  0.00862513  0.62462009  1
  Zn  Zn232  1  0.99118964  0.40470484  0.66384156  1
  C  C233  1  0.87833238  0.13547013  0.64434404  1
  Zn  Zn234  1  0.61663868  0.14255196  0.92859063  1
  O  O235  1  0.67161223  0.13206374  0.84767722  1
  O  O236  1  0.57093220  0.06539283  0.86185377  1
  C  C237  1  0.55044797  0.09697295  0.81162841  1
  O  O238  1  0.62561830  0.24920929  0.98754105  1
  O  O239  1  0.70843599  0.04261743  0.78243552  1
  C  C240  1  0.67321913  0.08514684  0.79538750  1
  O  O241  1  0.51758815  0.32481179  0.80346994  1
  O  O242  1  0.50658147  0.11637577  0.81490094  1
  O  O243  1  0.74353779  0.47808344  0.76628240  1
  O  O244  1  0.98139925  0.41921198  0.87383289  1
  O  O245  1  0.83514456  0.02982638  0.93450998  1
  C  C246  1  0.81954916  0.03322428  0.98439494  1
  O  O247  1  0.81197039  0.41041176  0.75815379  1
  C  C248  1  0.78968478  0.47557694  0.75924453  1
  O  O249  1  0.60377843  0.92667087  0.22729297  1
  C  C250  1  0.74045506  0.97656110  0.21384030  1
  H  H251  1  0.61144462  0.98814163  0.12429108  1
  O  O252  1  0.88814478  0.85415265  0.12418777  1
  O  O253  1  0.76310299  0.93534729  0.16669961  1
  C  C254  1  0.90716592  0.99441270  0.24470753  1
  C  C255  1  0.88721642  0.80568983  0.17353765  1
  O  O256  1  0.87895288  0.73480222  0.15764546  1
  Zn  Zn257  1  0.83612098  0.95995355  0.13452266  1
  C  C258  1  0.63720672  0.70433694  0.42728497  1
  O  O259  1  0.61237618  0.76265468  0.31544262  1
  C  C260  1  0.68610263  0.68773584  0.40810743  1
  C  C261  1  0.60014223  0.74147753  0.37749227  1
  O  O262  1  0.55925643  0.75170082  0.39716134  1
  Zn  Zn263  1  0.66523613  0.84913890  0.29026220  1
  C  C264  1  0.71593390  0.66636938  0.46483161  1
  C  C265  1  0.71123760  0.69085169  0.33780231  1
  C  C266  1  0.66355852  0.89923193  0.44061490  1
  O  O267  1  0.69283448  0.72407884  0.28543385  1
  O  O268  1  0.65443459  0.91806683  0.37999001  1
  C  C269  1  0.57401996  0.90658882  0.46040625  1
  O  O270  1  0.72466390  0.94212631  0.26480769  1
  H  H271  1  0.57418386  0.91195926  0.40364875  1
  O  O272  1  0.70604115  0.90156751  0.46224891  1
  C  C273  1  0.57139767  0.51135007  0.38873241  1
  C  C274  1  0.62136506  0.69825012  0.49535057  1
  O  O275  1  0.53233395  0.52507308  0.35539744  1
  C  C276  1  0.62017778  0.90155645  0.49038275  1
  C  C277  1  0.57180345  0.51710638  0.46402083  1
  C  C278  1  0.52913332  0.91114567  0.49409035  1
  C  C279  1  0.59403355  0.99477243  0.25021657  1
  O  O280  1  0.91037195  0.62516903  0.37406218  1
  H  H281  1  0.91892022  0.97811945  0.36540158  1
  O  O282  1  0.88550108  0.68082799  0.46621655  1
  O  O283  1  0.93594679  0.94610391  0.47857220  1
  H  H284  1  0.89556805  0.70792386  0.27547129  1
  O  O285  1  0.75323622  0.66755145  0.33190650  1
  C  C286  1  0.89942920  0.76769093  0.29863019  1
  H  H287  1  0.75577883  0.65660780  0.45289410  1
  C  C288  1  0.90032589  0.68633107  0.40546132  1
  C  C289  1  0.91212651  0.91586266  0.34656265  1
  C  C290  1  0.90277418  0.77260206  0.36999089  1
  C  C291  1  0.90622015  0.90812498  0.27496556  1
  C  C292  1  0.91111192  0.85192059  0.39274406  1
  C  C293  1  0.91902611  0.88036656  0.46979640  1
  C  C294  1  0.89810543  0.83068012  0.25067838  1
  C  C295  1  0.67149394  0.87090405  0.60791415  1
  H  H296  1  0.58364404  0.87363982  0.65002233  1
  C  C297  1  0.62483594  0.88586755  0.56109711  1
  O  O298  1  0.64646227  0.65533319  0.67144922  1
  O  O299  1  0.66523617  0.86799567  0.66780155  1
  O  O300  1  0.71446809  0.85522418  0.58565861  1
  C  C301  1  0.62440880  0.66708131  0.61562163  1
  O  O302  1  0.58060188  0.68459728  0.61530101  1
  C  C303  1  0.58044620  0.88425661  0.59382058  1
  Zn  Zn304  1  0.68994639  0.55901078  0.70628962  1
  C  C305  1  0.65172155  0.67123368  0.54740994  1
  C  C306  1  0.53357881  0.89754150  0.56416073  1
  C  C307  1  0.70264775  0.65679254  0.53217054  1
  O  O308  1  0.55232072  0.53342891  0.71383232  1
  C  C309  1  0.54400444  0.52420008  0.58005137  1
  Zn  Zn310  1  0.74789320  0.96505359  0.53816193  1
  H  H311  1  0.51044384  0.52957048  0.61271730  1
  C  C312  1  0.53493325  0.53679327  0.51186518  1
  O  O313  1  0.50546136  0.86792405  0.67840083  1
  O  O314  1  0.74273715  0.64424966  0.64535215  1
  C  C315  1  0.74718994  0.64378166  0.58198981  1
  H  H316  1  0.58395956  0.72063351  0.50769702  1
  C  C317  1  0.93396372  0.57093838  0.63672257  1
  C  C318  1  0.84076261  0.69823988  0.74416635  1
  O  O319  1  0.94862550  0.76596556  0.65208529  1
  O  O320  1  0.81366474  0.95098349  0.59267191  1
  Zn  Zn321  1  0.93834191  0.71948581  0.55051781  1
  O  O322  1  0.96168609  0.61780778  0.60383113  1
  C  C323  1  0.89605309  0.60562950  0.68372002  1
  O  O324  1  0.89722343  0.82858500  0.71760092  1
  C  C325  1  0.81931541  0.55669339  0.73870915  1
  O  O326  1  0.78601942  0.63552489  0.55169763  1
  O  O327  1  0.90359057  0.83279798  0.51676524  1
  C  C328  1  0.88504442  0.68459078  0.70799716  1
  C  C329  1  0.86201305  0.54468637  0.70112149  1
  C  C330  1  0.91215078  0.76560032  0.69256699  1
  O  O331  1  0.72061761  0.62478282  0.79800535  1
  O  O332  1  0.76128443  0.73533512  0.81179626  1
  C  C333  1  0.75949419  0.66575276  0.79345160  1
  C  C334  1  0.80775918  0.63484695  0.75878604  1
  H  H335  1  0.83396984  0.76041738  0.76436983  1
