# generated using pymatgen
data_ZnH11C17O6
_symmetry_space_group_name_H-M   'P 1'
_cell_length_a   20.73614060
_cell_length_b   13.57505428
_cell_length_c   26.16114901
_cell_angle_alpha   90.00000000
_cell_angle_beta   90.00000000
_cell_angle_gamma   90.00000000
_symmetry_Int_Tables_number   1
_chemical_formula_structural   ZnH11C17O6
_chemical_formula_sum   'Zn16 H176 C272 O96'
_cell_volume   7364.21260851
_cell_formula_units_Z   16
loop_
 _symmetry_equiv_pos_site_id
 _symmetry_equiv_pos_as_xyz
  1  'x, y, z'
loop_
 _atom_site_type_symbol
 _atom_site_label
 _atom_site_symmetry_multiplicity
 _atom_site_fract_x
 _atom_site_fract_y
 _atom_site_fract_z
 _atom_site_occupancy
  H  H0  1  0.49520320  0.34116583  0.06177558  1
  O  O1  1  0.24399485  0.39112683  0.14569479  1
  C  C2  1  0.12444486  0.17439649  0.16095570  1
  C  C3  1  0.14980799  0.19699387  0.11246913  1
  C  C4  1  0.28922780  0.43990175  0.12514296  1
  H  H5  1  0.08265540  0.05678140  0.20701672  1
  Zn  Zn6  1  0.33505744  0.14238846  0.07094548  1
  C  C7  1  0.13154223  0.49694454  0.02225939  1
  C  C8  1  0.14482763  0.12816190  0.07261676  1
  H  H9  1  0.03138402  0.18577641  0.06824403  1
  C  C10  1  0.12515748  0.23692257  0.20654952  1
  C  C11  1  0.10204574  0.08003408  0.17084117  1
  C  C12  1  0.39925452  0.16060485  0.01280810  1
  O  O13  1  0.32538131  0.39852104  0.09631910  1
  H  H14  1  0.16878610  0.27246225  0.10641639  1
  C  C15  1  0.15145371  0.32800400  0.00851387  1
  O  O16  1  0.14930104  0.31783921  0.19942899  1
  C  C17  1  0.47327780  0.27974944  0.03761609  1
  C  C18  1  0.41812816  0.22479849  0.05077712  1
  H  H19  1  0.36830659  0.38034668  0.01044714  1
  C  C20  1  0.17626334  0.14882917  0.02062271  1
  H  H21  1  0.12937739  0.32091040  0.04655043  1
  Zn  Zn22  1  0.24299387  0.36408373  0.22568417  1
  C  C23  1  0.12332476  0.03184730  0.08224464  1
  C  C24  1  0.09812365  0.00985857  0.13116713  1
  C  C25  1  0.36641464  0.01134900  0.11910459  1
  H  H26  1  0.01185285  0.15943799  0.13421019  1
  O  O27  1  0.02155313  0.31260966  0.01371730  1
  C  C28  1  0.40724545  0.47465055  0.44637078  1
  O  O29  1  0.40302975  0.30060506  0.45829465  1
  C  C30  1  0.24100088  0.09284446  0.43100206  1
  C  C31  1  0.25636094  0.16639848  0.34933869  1
  C  C32  1  0.27280069  0.16496939  0.40032091  1
  C  C33  1  0.17954762  0.04245795  0.35842280  1
  H  H34  1  0.47400820  0.13000305  0.39915185  1
  O  O35  1  0.33642232  0.28462447  0.32626451  1
  C  C36  1  0.29009821  0.23837710  0.31189234  1
  C  C37  1  0.49838381  0.08501244  0.36992183  1
  H  H38  1  0.26640920  0.40773079  0.43453297  1
  H  H39  1  0.40166812  0.14702399  0.48072011  1
  H  H40  1  0.31066667  0.21776032  0.41364786  1
  H  H41  1  0.19783940  0.11312542  0.28368073  1
  C  C42  1  0.07686854  0.17741843  0.45001997  1
  H  H43  1  0.07089432  0.24060854  0.32935066  1
  H  H44  1  0.12520496  0.21117806  0.44919152  1
  H  H45  1  0.25302107  0.28252951  0.46180698  1
  H  H46  1  0.13970070  0.30353631  0.30191613  1
  C  C47  1  0.23087021  0.44444565  0.46193666  1
  H  H48  1  0.18841488  0.39720158  0.45638221  1
  H  H49  1  0.04100127  0.22695244  0.46510706  1
  C  C50  1  0.42306881  0.39550265  0.47784082  1
  C  C51  1  0.09261229  0.27482503  0.29455389  1
  O  O52  1  0.26590398  0.24356408  0.26711755  1
  H  H53  1  0.47323085  0.45251832  0.32153224  1
  C  C54  1  0.20968470  0.10712901  0.32448654  1
  O  O55  1  0.08999572  0.07768978  0.47691190  1
  H  H56  1  0.38041938  0.46010834  0.41062460  1
  C  C57  1  0.26206979  0.08071458  0.48411187  1
  H  H58  1  0.05893269  0.33561884  0.28366049  1
  O  O59  1  0.09641517  0.20860441  0.25013580  1
  H  H60  1  0.06230323  0.17034167  0.40931552  1
  C  C61  1  0.19053281  0.03314141  0.41025778  1
  C  C62  1  0.41675336  0.22652335  0.49251439  1
  H  H63  1  0.47141134  0.22701109  0.49407976  1
  H  H64  1  0.48637796  0.43367875  0.25424424  1
  C  C65  1  0.25017672  0.17682769  0.73119683  1
  O  O66  1  0.48006723  0.34306536  0.55662758  1
  H  H67  1  0.17409249  0.32990613  0.58586126  1
  C  C68  1  0.10972121  0.08039934  0.52551691  1
  C  C69  1  0.26446982  0.26607812  0.50053707  1
  O  O70  1  0.10447004  0.25661792  0.54041733  1
  H  H71  1  0.16290658  0.21928937  0.62619752  1
  H  H72  1  0.35789408  0.34036896  0.67631748  1
  H  H73  1  0.11836274  0.41757876  0.55686319  1
  C  C74  1  0.31173815  0.23547425  0.59693244  1
  C  C75  1  0.30558045  0.15226953  0.56543695  1
  C  C76  1  0.39774311  0.09198327  0.64765950  1
  H  H77  1  0.08697064  0.20136079  0.69850889  1
  H  H78  1  0.41906394  0.14743634  0.62219117  1
  C  C79  1  0.18911302  0.15286436  0.71370493  1
  C  C80  1  0.27459019  0.34748074  0.52955860  1
  C  C81  1  0.31145811  0.05520142  0.58747955  1
  C  C82  1  0.12168754  0.16460511  0.55594648  1
  C  C83  1  0.15155692  0.15379496  0.60365641  1
  C  C84  1  0.27489033  0.16683671  0.51471369  1
  C  C85  1  0.33933174  0.04093972  0.63906689  1
  C  C86  1  0.29594346  0.33022871  0.58106728  1
  O  O87  1  0.30260118  0.40626579  0.61584767  1
  C  C88  1  0.31259062  0.37959562  0.66824871  1
  C  C89  1  0.16345108  0.06595140  0.62862713  1
  C  C90  1  0.12174322  0.33838217  0.57403612  1
  C  C91  1  0.18021344  0.06221522  0.68123774  1
  H  H92  1  0.32854592  0.22518366  0.63722016  1
  H  H93  1  0.26906939  0.33246352  0.67756701  1
  C  C94  1  0.45761445  0.41739950  0.52181727  1
  H  H95  1  0.40081336  0.24419257  0.53317091  1
  C  C96  1  0.16181723  0.46715743  0.65553331  1
  C  C97  1  0.43801270  0.07014939  0.68833518  1
  C  C98  1  0.13323547  0.21165814  0.71961963  1
  H  H99  1  0.31009323  0.45045529  0.69383044  1
  H  H100  1  0.09120328  0.33598757  0.60915025  1
  H  H101  1  0.16166872  0.43566445  0.69447573  1
  H  H102  1  0.29167689  0.12638464  0.72753793  1
  H  H103  1  0.04172228  0.02872343  0.69492214  1
  H  H104  1  0.02500767  0.26684356  0.74506365  1
  O  O105  1  0.25983874  0.44123659  0.50987847  1
  H  H106  1  0.18198345  0.41423355  0.62637646  1
  C  C107  1  0.17741619  0.23792505  0.98872292  1
  H  H108  1  0.35881467  0.40115698  0.81593269  1
  C  C109  1  0.44592114  0.17821825  0.97355061  1
  C  C110  1  0.31612215  0.29667224  0.78451365  1
  C  C111  1  0.03170782  0.10554060  0.79918870  1
  H  H112  1  0.43797609  0.47972713  0.85520040  1
  C  C113  1  0.14024640  0.29673534  0.75151199  1
  H  H114  1  0.20563332  0.39517897  0.78771907  1
  C  C115  1  0.02664530  0.10578889  0.85093899  1
  H  H116  1  0.31572240  0.46822053  0.97826825  1
  C  C117  1  0.08521921  0.35737619  0.76774076  1
  Zn  Zn118  1  0.03351046  0.33206291  0.90097218  1
  C  C119  1  0.22125065  0.38114257  0.91683194  1
  H  H120  1  0.49584847  0.40763358  0.89529713  1
  H  H121  1  0.05472337  0.16516469  0.77818834  1
  C  C122  1  0.20146202  0.32663058  0.76659042  1
  O  O123  1  0.31393389  0.39322107  0.81027972  1
  C  C124  1  0.22108924  0.21542192  0.94607028  1
  H  H125  1  0.27006483  0.26568778  0.87128969  1
  O  O126  1  0.40891247  0.45807286  0.94680492  1
  O  O127  1  0.30134594  0.10600490  0.87699883  1
  C  C128  1  0.23404210  0.11272191  0.94991036  1
  C  C129  1  0.19028529  0.46179360  0.93911439  1
  C  C130  1  0.49220119  0.25237434  0.98543877  1
  O  O131  1  0.09552702  0.43637948  0.78604122  1
  C  C132  1  0.23858591  0.28630847  0.90551676  1
  H  H133  1  0.33648187  0.35548898  0.94622588  1
  C  C134  1  0.27628695  0.06309998  0.91297262  1
  C  C135  1  0.25529850  0.26492571  0.75908798  1
  H  H136  1  0.44574731  0.13672002  0.93691464  1
  H  H137  1  0.37243765  0.09463305  0.81433913  1
  C  C138  1  0.05248694  0.18247124  0.88955981  1
  C  C139  1  0.02394196  0.27261554  0.97483033  1
  H  H140  1  0.15585762  0.03317909  0.78201031  1
  H  H141  1  0.10566384  0.17291342  0.89037119  1
  C  C142  1  0.02017940  0.18762852  0.94109050  1
  C  C143  1  0.48965247  0.47462267  0.86798270  1
  C  C144  1  0.34513879  0.04526093  0.83948369  1
  C  C145  1  0.35405266  0.41426798  0.97137401  1
  H  H146  1  0.19204831  0.01379659  0.85873956  1
  O  O147  1  0.36515060  0.25481581  0.77813657  1
  O  O148  1  0.01440207  0.33122873  0.75958036  1
  H  H149  1  0.48765084  0.02808626  0.84209301  1
  H  H150  1  0.10419434  0.00007252  0.85187774  1
  C  C151  1  0.15925016  0.42372741  0.98733644  1
  C  C152  1  0.21272106  0.07401031  0.99843796  1
  O  O153  1  0.04691030  0.89456535  0.18379360  1
  C  C154  1  0.22292728  0.77728158  0.18881616  1
  O  O155  1  0.26638122  0.93210148  0.07603741  1
  H  H156  1  0.37000995  0.56392676  0.02220360  1
  C  C157  1  0.06844337  0.90944781  0.14022175  1
  C  C158  1  0.13481290  0.58102388  0.05601922  1
  O  O159  1  0.40687625  0.99128510  0.14847606  1
  C  C160  1  0.30028202  0.55686436  0.13120226  1
  H  H161  1  0.03680916  0.51977325  0.07659637  1
  C  C162  1  0.08175075  0.52025659  0.05415436  1
  O  O163  1  0.16394659  0.65961052  0.07468598  1
  C  C164  1  0.30713874  0.98629175  0.09088936  1
  C  C165  1  0.40720679  0.73207850  0.06762614  1
  C  C166  1  0.25969564  0.61276168  0.15966248  1
  C  C167  1  0.26891071  0.71693801  0.16015069  1
  O  O168  1  0.06417631  0.84691521  0.10478165  1
  C  C169  1  0.34875906  0.59093583  0.10134438  1
  H  H170  1  0.32226701  0.84258913  0.12779499  1
  C  C171  1  0.35720703  0.69737766  0.09973348  1
  C  C172  1  0.31726528  0.75900493  0.13089339  1
  H  H173  1  0.21754934  0.70729544  0.01043378  1
  O  O174  1  0.44566009  0.54317752  0.19340287  1
  H  H175  1  0.32834740  0.54134651  0.23422501  1
  H  H176  1  0.21779444  0.57991548  0.17786236  1
  Zn  Zn177  1  0.47236575  0.84937317  0.05325333  1
  H  H178  1  0.25655575  0.88851214  0.16112629  1
  H  H179  1  0.25586440  0.62795424  0.05541766  1
  C  C180  1  0.43268852  0.69267196  0.02105037  1
  O  O181  1  0.23028911  0.88574548  0.18981929  1
  C  C182  1  0.45994536  0.57952375  0.23583221  1
  C  C183  1  0.22185091  0.69244803  0.05270537  1
  O  O184  1  0.17691125  0.74715672  0.21411194  1
  Zn  Zn185  1  0.12143268  0.86295994  0.24228685  1
  H  H186  1  0.37809412  0.53614447  0.08168737  1
  H  H187  1  0.24785754  0.75768701  0.06957368  1
  Zn  Zn188  1  0.00399349  0.84892699  0.03936104  1
  H  H189  1  0.12339369  0.97831481  0.05067772  1
  H  H190  1  0.21883788  0.99838360  0.01321655  1
  H  H191  1  0.31727533  0.74447613  0.24923694  1
  C  C192  1  0.41014093  0.60085672  0.00176889  1
  C  C193  1  0.40938297  0.59344314  0.27657290  1
  O  O194  1  0.31500782  0.80956399  0.31996187  1
  C  C195  1  0.38910646  0.63111665  0.36692646  1
  C  C196  1  0.41911232  0.65520125  0.41784356  1
  C  C197  1  0.44353316  0.74948017  0.43009522  1
  O  O198  1  0.10252663  0.91336088  0.36239307  1
  H  H199  1  0.25503636  0.78112666  0.39658367  1
  C  C200  1  0.47452999  0.91846069  0.40353082  1
  H  H201  1  0.24747110  0.90683898  0.43509469  1
  C  C202  1  0.46815004  0.77165092  0.48228484  1
  C  C203  1  0.22068543  0.73079744  0.41800368  1
  H  H204  1  0.17864172  0.78099582  0.42522987  1
  H  H205  1  0.20703687  0.66994738  0.39070714  1
  H  H206  1  0.42632999  0.81493020  0.35232654  1
  C  C207  1  0.26332235  0.89514101  0.47514279  1
  C  C208  1  0.48939355  0.87057115  0.49203637  1
  H  H209  1  0.28959099  0.60625914  0.39338135  1
  O  O210  1  0.25417252  0.71223320  0.46215952  1
  C  C211  1  0.44735357  0.82640813  0.39241986  1
  C  C212  1  0.32445656  0.59976819  0.36060283  1
  C  C213  1  0.13046823  0.97364012  0.33449981  1
  C  C214  1  0.26894217  0.80444931  0.49710045  1
  C  C215  1  0.43092828  0.62619307  0.32381510  1
  O  O216  1  0.11565010  0.98555036  0.28808798  1
  C  C217  1  0.34644910  0.56387560  0.27100067  1
  C  C218  1  0.33135610  0.80161381  0.27649967  1
  C  C219  1  0.30451025  0.56593151  0.31359433  1
  C  C220  1  0.49478992  0.94052205  0.45355437  1
  C  C221  1  0.42536228  0.57498109  0.45434436  1
  H  H222  1  0.36619439  0.86013750  0.26382948  1
  O  O223  1  0.10615183  0.52408364  0.47454057  1
  H  H224  1  0.16293338  0.98403314  0.43573913  1
  O  O225  1  0.19806301  0.53464897  0.33811140  1
  C  C226  1  0.23709046  0.53076808  0.30244209  1
  H  H227  1  0.21793970  0.52016710  0.44817106  1
  H  H228  1  0.48072640  0.64558988  0.32947953  1
  O  O229  1  0.47922202  0.98990501  0.35920690  1
  O  O230  1  0.22446097  0.50805002  0.25712891  1
  O  O231  1  0.14340453  0.54689844  0.64652720  1
  C  C232  1  0.36160977  0.95266063  0.71782786  1
  C  C233  1  0.01990890  0.62055987  0.58193003  1
  C  C234  1  0.08515303  0.64658075  0.54992065  1
  C  C235  1  0.16269602  0.87688827  0.67982152  1
  C  C236  1  0.14506929  0.88198967  0.62686683  1
  C  C237  1  0.30148362  0.87108434  0.57667826  1
  H  H238  1  0.17389981  0.74780386  0.55007280  1
  C  C239  1  0.44673479  0.65689852  0.61373161  1
  H  H240  1  0.40526384  0.60727200  0.60346232  1
  C  C241  1  0.45182394  0.59861864  0.50464425  1
  C  C242  1  0.27078908  0.98288796  0.50548656  1
  C  C243  1  0.28939106  0.79154071  0.54571498  1
  C  C244  1  0.32033263  0.97234174  0.67636422  1
  C  C245  1  0.29044029  0.97033616  0.55895180  1
  H  H246  1  0.03359375  0.81235331  0.67500907  1
  H  H247  1  0.32667419  0.86270674  0.61362159  1
  O  O248  1  0.30113368  0.68187493  0.57347165  1
  H  H249  1  0.00872731  0.54015686  0.58386530  1
  C  C250  1  0.48451437  0.70409669  0.57668176  1
  O  O251  1  0.37560077  0.57972571  0.69487302  1
  H  H252  1  0.27518385  0.92591337  0.67210517  1
  H  H253  1  0.15984974  0.71837047  0.69392897  1
  C  C254  1  0.14831077  0.97414519  0.59959602  1
  C  C255  1  0.10555659  0.80051005  0.60915696  1
  H  H256  1  0.31277863  0.53946245  0.56466809  1
  C  C257  1  0.12326938  0.74346811  0.56426050  1
  C  C258  1  0.01022925  0.67683692  0.62846573  1
  C  C259  1  0.42332072  0.62602264  0.70686924  1
  Zn  Zn260  1  0.02213105  0.77038276  0.56497754  1
  C  C261  1  0.46160300  0.67910144  0.66409975  1
  C  C262  1  0.15923169  0.79211016  0.71242161  1
  H  H263  1  0.11269593  0.92267107  0.52687740  1
  C  C264  1  0.46882884  0.69902295  0.52119582  1
  H  H265  1  0.49667420  0.52731895  0.56757817  1
  C  C266  1  0.04837643  0.76490681  0.64257808  1
  C  C267  1  0.30809984  0.61337798  0.54766050  1
  C  C268  1  0.42131227  0.99818970  0.72404272  1
  C  C269  1  0.17418267  0.96971009  0.70743869  1
  C  C270  1  0.46914300  0.51396791  0.53356290  1
  C  C271  1  0.12224019  0.98988394  0.55106841  1
  C  C272  1  0.10202328  0.57887383  0.50811257  1
  H  H273  1  0.31390096  0.62360217  0.50493708  1
  C  C274  1  0.10612096  0.80031744  0.96995544  1
  C  C275  1  0.22348556  0.77890289  0.93666943  1
  H  H276  1  0.23295563  0.85580990  0.93850282  1
  Zn  Zn277  1  0.43793879  0.72375084  0.81413470  1
  H  H278  1  0.11472716  0.72648758  0.84624009  1
  C  C279  1  0.12436359  0.66016863  0.82004977  1
  Zn  Zn280  1  0.01986665  0.67797518  0.79049413  1
  C  C281  1  0.16064138  0.87842351  0.78886805  1
  O  O282  1  0.15739452  0.87861333  0.84500369  1
  O  O283  1  0.05040120  0.75422686  0.98146382  1
  C  C284  1  0.20343459  0.57150940  0.93330173  1
  H  H285  1  0.11191196  0.60263545  0.96197882  1
  C  C286  1  0.48637573  0.59196152  0.93169823  1
  C  C287  1  0.33048870  0.76174562  0.90084194  1
  H  H288  1  0.30262327  0.56734457  0.90207267  1
  O  O289  1  0.44459736  0.62279507  0.75263707  1
  H  H290  1  0.12488733  0.59300776  0.84281885  1
  C  C291  1  0.16430456  0.73893699  0.95135868  1
  O  O292  1  0.39225116  0.86926009  0.79913770  1
  H  H293  1  0.36439821  0.83504714  0.82321157  1
  O  O294  1  0.33894714  0.84907045  0.90954375  1
  O  O295  1  0.37150142  0.70494520  0.87905809  1
  C  C296  1  0.43542318  0.54983559  0.96128319  1
  O  O297  1  0.10835573  0.88643607  0.97499848  1
  C  C298  1  0.26764791  0.71115048  0.91524356  1
  C  C299  1  0.14824431  0.96832335  0.86825889  1
  C  C300  1  0.15552184  0.63812523  0.94897498  1
  C  C301  1  0.26095101  0.61090458  0.91391855  1
  O  O302  1  0.16224035  0.67611691  0.78323783  1
  H  H303  1  0.14450590  0.96579102  0.91279005  1
  C  C304  1  0.33971930  0.88308934  0.75645373  1
  H  H305  1  0.31495973  0.99659925  0.81426653  1
  H  H306  1  0.29407715  0.98370371  0.91718822  1
  H  H307  1  0.38349537  0.99850200  0.85801848  1
  C  C308  1  0.16011257  0.78832914  0.76390830  1
  Zn  Zn309  1  0.00358648  0.66083461  0.93363406  1
  C  C310  1  0.48756555  0.74091599  0.99191119  1
  O  O311  1  0.28877390  0.84890898  0.76126701  1
  C  C312  1  0.16447685  0.96476717  0.76099512  1
  H  H313  1  0.45358036  0.98212719  0.75614369  1
  C  C314  1  0.87761275  0.41072216  0.09374653  1
  H  H315  1  0.63980247  0.45324863  0.02144643  1
  H  H316  1  0.85810460  0.30730559  0.02696797  1
  O  O317  1  0.83905554  0.26123218  0.12428726  1
  C  C318  1  0.86068136  0.34133127  0.13526071  1
  O  O319  1  0.50691360  0.46712750  0.11625735  1
  H  H320  1  0.74876908  0.44773269  0.13829826  1
  H  H321  1  0.78414084  0.49479409  0.05025975  1
  H  H322  1  0.86961787  0.30579938  0.20340622  1
  O  O323  1  0.87505455  0.36853437  0.18470823  1
  O  O324  1  0.72368572  0.39602238  0.21818742  1
  C  C325  1  0.87192528  0.38166810  0.04228265  1
  C  C326  1  0.69613122  0.47180536  0.22906028  1
  H  H327  1  0.91565100  0.10404845  0.07537279  1
  O  O328  1  0.95946665  0.08261215  0.07811895  1
  H  H329  1  0.96335851  0.23881794  0.09573738  1
  H  H330  1  0.76493611  0.06283760  0.22288724  1
  C  C331  1  0.99010819  0.17249850  0.09485087  1
  C  C332  1  0.89182351  0.44119746  0.00182955  1
  C  C333  1  0.90399528  0.49965279  0.10891455  1
  H  H334  1  0.97511752  0.09210566  0.00096622  1
  C  C335  1  0.59920292  0.22384598  0.35746476  1
  O  O336  1  0.53668210  0.33749089  0.30118833  1
  C  C337  1  0.62927166  0.19056644  0.40330322  1
  C  C338  1  0.62968903  0.25268598  0.44852443  1
  H  H339  1  0.60134131  0.39559699  0.47350669  1
  C  C340  1  0.50217078  0.41367878  0.29397228  1
  H  H341  1  0.75234953  0.43028503  0.36026641  1
  C  C342  1  0.56810169  0.31392468  0.35602789  1
  C  C343  1  0.56967406  0.37668181  0.39732077  1
  C  C344  1  0.69445819  0.06178320  0.44855117  1
  H  H345  1  0.59864144  0.17242175  0.32446508  1
  H  H346  1  0.71296528  0.11367744  0.30990379  1
  H  H347  1  0.76995643  0.22487712  0.41402010  1
  C  C348  1  0.65443298  0.08941988  0.40630697  1
  C  C349  1  0.87241340  0.16286251  0.26874150  1
  H  H350  1  0.54919876  0.07636700  0.38711203  1
  O  O351  1  0.54009184  0.47438780  0.39896881  1
  C  C352  1  0.60064641  0.34623365  0.44211724  1
  O  O353  1  0.82236171  0.19722987  0.26108409  1
  O  O354  1  0.67858913  0.48958817  0.27626988  1
  C  C355  1  0.72603808  0.44216743  0.39801428  1
  H  H356  1  0.68498237  0.39310880  0.40308309  1
  H  H357  1  0.82539647  0.12627643  0.43471728  1
  C  C358  1  0.66505146  0.22425330  0.49331690  1
  C  C359  1  0.69968423  0.13322709  0.49148795  1
  C  C360  1  0.81615148  0.20682396  0.43270518  1
  C  C361  1  0.69078974  0.04177820  0.31723414  1
  O  O362  1  0.85833639  0.26469894  0.43946071  1
  O  O363  1  0.52366349  0.03716035  0.46929729  1
  O  O364  1  0.92116448  0.12730665  0.28040883  1
  H  H365  1  0.50675708  0.12837981  0.33382870  1
  C  C366  1  0.65740281  0.01864682  0.36294599  1
  H  H367  1  0.81366197  0.42407254  0.49165989  1
  C  C368  1  0.66127986  0.38019597  0.54499706  1
  C  C369  1  0.65804552  0.43227916  0.59088451  1
  H  H370  1  0.57439570  0.37775712  0.57468931  1
  C  C371  1  0.81227698  0.38619439  0.52844534  1
  O  O372  1  0.53579094  0.09477116  0.73503570  1
  C  C373  1  0.74603310  0.10549840  0.52835090  1
  Zn  Zn374  1  0.93309156  0.46036622  0.73850866  1
  H  H375  1  0.67160158  0.15203635  0.59796506  1
  O  O376  1  0.85434918  0.21557111  0.68518873  1
  H  H377  1  0.64914149  0.43020454  0.67579279  1
  C  C378  1  0.66043262  0.39032763  0.64079691  1
  H  H379  1  0.81850295  0.37814572  0.59649826  1
  C  C380  1  0.84328820  0.28803598  0.70839413  1
  Zn  Zn381  1  0.63145546  0.04422162  0.72856567  1
  O  O382  1  0.65610135  0.26561831  0.72818268  1
  H  H383  1  0.80962631  0.09467446  0.62600930  1
  O  O384  1  0.86274226  0.37310658  0.69317472  1
  C  C385  1  0.66501441  0.27725576  0.54249988  1
  C  C386  1  0.67070520  0.23070930  0.68692158  1
  C  C387  1  0.66959061  0.23145578  0.59235018  1
  C  C388  1  0.66290689  0.28869792  0.63679460  1
  O  O389  1  0.51788125  0.19477342  0.67280086  1
  H  H390  1  0.75795041  0.15971536  0.55845179  1
  O  O391  1  0.68959079  0.14027238  0.68394706  1
  H  H392  1  0.56160363  0.13208658  0.51717541  1
  H  H393  1  0.85432565  0.14269795  0.57159691  1
  H  H394  1  0.80500921  0.30621276  0.52494906  1
  C  C395  1  0.77933359  0.01672294  0.52620757  1
  O  O396  1  0.81903332  0.43556786  0.56656702  1
  H  H397  1  0.51999977  0.42560238  0.62195976  1
  C  C398  1  0.84608471  0.07586262  0.59539227  1
  C  C399  1  0.54318595  0.05528941  0.51904887  1
  H  H400  1  0.50722112  0.05147321  0.55057515  1
  H  H401  1  0.89174780  0.05351898  0.61978891  1
  H  H402  1  0.53165891  0.29644399  0.61734570  1
  C  C403  1  0.99966351  0.00282571  0.71533921  1
  H  H404  1  0.78135069  0.12643464  0.74977201  1
  C  C405  1  0.50123285  0.12464272  0.69745841  1
  C  C406  1  0.52642055  0.36621654  0.59327235  1
  H  H407  1  0.66121767  0.41694833  0.50947274  1
  C  C408  1  0.63191331  0.43514443  0.98046035  1
  O  O409  1  0.67958788  0.08726743  0.87553103  1
  C  C410  1  0.55982060  0.00519709  0.97505023  1
  C  C411  1  0.70532056  0.09669969  0.83622026  1
  H  H412  1  0.70323865  0.27936220  0.88487908  1
  O  O413  1  0.86810406  0.20610442  0.87918672  1
  C  C414  1  0.79822129  0.28208597  0.75568464  1
  C  C415  1  0.73089633  0.27290086  0.84814451  1
  C  C416  1  0.55904540  0.25620702  0.89826081  1
  C  C417  1  0.77448003  0.19290839  0.77167392  1
  C  C418  1  0.90981714  0.47416517  0.90829203  1
  H  H419  1  0.91499437  0.12220562  0.83174586  1
  C  C420  1  0.89611449  0.42879983  0.85798245  1
  C  C421  1  0.74002936  0.45510240  0.85777251  1
  H  H422  1  0.85907943  0.34780359  0.94124867  1
  H  H423  1  0.64478501  0.39631155  0.81185658  1
  C  C424  1  0.67094927  0.46259886  0.88817733  1
  C  C425  1  0.73812189  0.18659830  0.81828991  1
  C  C426  1  0.63737240  0.38972538  0.85189892  1
  H  H427  1  0.82059311  0.43952488  0.77090454  1
  H  H428  1  0.86019998  0.36998595  0.85817062  1
  C  C429  1  0.58618735  0.36723592  0.96746951  1
  C  C430  1  0.88591270  0.41639821  0.94885311  1
  C  C431  1  0.59894819  0.31862893  0.87127250  1
  C  C432  1  0.66183575  0.49564529  0.94115991  1
  C  C433  1  0.79420694  0.36990993  0.78300752  1
  C  C434  1  0.75981748  0.35802320  0.82964014  1
  C  C435  1  0.52759265  0.16728433  0.87816984  1
  O  O436  1  0.70568609  0.01271618  0.79114137  1
  C  C437  1  0.54488173  0.29717712  0.95155225  1
  C  C438  1  0.90602487  0.19905220  0.84534185  1
  H  H439  1  0.51651421  0.44602922  0.83451916  1
  C  C440  1  0.92506620  0.46732443  0.81698045  1
  H  H441  1  0.92897873  0.26268828  0.82457339  1
  H  H442  1  0.58415180  0.05498087  0.94638776  1
  C  C443  1  0.50620411  0.09448766  0.85807101  1
  C  C444  1  0.99141241  0.09932838  0.95951118  1
  C  C445  1  0.99170553  0.03437119  0.76839765  1
  C  C446  1  0.97809255  0.02654017  0.92569662  1
  C  C447  1  0.99135185  0.02771138  0.87449717  1
  H  H448  1  0.82917818  0.68518643  0.02050514  1
  C  C449  1  0.63570608  0.68241769  0.13857220  1
  C  C450  1  0.64771932  0.63018288  0.18393536  1
  H  H451  1  0.90906426  0.52402028  0.15100735  1
  O  O452  1  0.94504446  0.72638798  0.04966375  1
  H  H453  1  0.65209380  0.69653728  0.05717513  1
  C  C454  1  0.58856571  0.77165981  0.14631903  1
  H  H455  1  0.98626332  0.74667629  0.12449039  1
  C  C456  1  0.68342439  0.54258927  0.18297553  1
  H  H457  1  0.68846882  0.91428625  0.11025911  1
  O  O458  1  0.73777756  0.87240324  0.04732679  1
  C  C459  1  0.94443496  0.66128457  0.08108322  1
  O  O460  1  0.96416008  0.68012742  0.12943583  1
  C  C461  1  0.70825262  0.57101953  0.09269365  1
  O  O462  1  0.57052196  0.77844029  0.19152309  1
  C  C463  1  0.66113109  0.65115156  0.09234720  1
  C  C464  1  0.74792971  0.98587642  0.23672335  1
  H  H465  1  0.62384302  0.65548001  0.22085931  1
  C  C466  1  0.91725829  0.56237714  0.06649558  1
  O  O467  1  0.57093912  0.82961426  0.11228363  1
  C  C468  1  0.74589053  0.55065088  0.04926650  1
  C  C469  1  0.91122114  0.53934180  0.01608015  1
  O  O470  1  0.51489912  0.60114220  0.24929295  1
  C  C471  1  0.73422208  0.88460377  0.09191060  1
  H  H472  1  0.77972796  0.87247933  0.11652889  1
  O  O473  1  0.76851598  0.93439290  0.20372907  1
  H  H474  1  0.55212717  0.53235397  0.17669405  1
  C  C475  1  0.51620671  0.53663091  0.14484565  1
  H  H476  1  0.50789157  0.61739433  0.13281989  1
  H  H477  1  0.59372495  0.96453134  0.00147241  1
  C  C478  1  0.71325586  0.51032879  0.13901370  1
  C  C479  1  0.73953288  0.61383461  0.00286783  1
  C  C480  1  0.67871750  0.87003238  0.29111362  1
  O  O481  1  0.58528791  0.72926061  0.37675952  1
  Zn  Zn482  1  0.58458190  0.53299402  0.30138234  1
  C  C483  1  0.72517638  0.96961620  0.44870446  1
  H  H484  1  0.54138124  0.51786642  0.47501191  1
  O  O485  1  0.62715039  0.68496153  0.30507046  1
  H  H486  1  0.76509304  0.82870078  0.41106980  1
  C  C487  1  0.70634486  0.96662681  0.28271448  1
  C  C488  1  0.56014985  0.54013074  0.43747082  1
  H  H489  1  0.71230310  0.91791404  0.41821029  1
  H  H490  1  0.59582969  0.90639988  0.40099409  1
  H  H491  1  0.68920559  0.81082766  0.26297954  1
  C  C492  1  0.64297763  0.85463302  0.33387133  1
  C  C493  1  0.62767432  0.92537524  0.36944079  1
  C  C494  1  0.61610529  0.75021134  0.33938197  1
  H  H495  1  0.53561502  0.61231845  0.42652375  1
  H  H496  1  0.61432264  0.54922727  0.43742441  1
  H  H497  1  0.80206739  0.72220489  0.44552419  1
  C  C498  1  0.77128863  0.78839136  0.44771826  1
  H  H499  1  0.72261307  0.76763766  0.46147183  1
  O  O500  1  0.73943329  0.51460818  0.42014637  1
  O  O501  1  0.79739724  0.85605208  0.48608773  1
  C  C502  1  0.76929639  0.94427966  0.48692175  1
  H  H503  1  0.88418411  0.79701565  0.66222778  1
  C  C504  1  0.60304984  0.86715275  0.65495355  1
  H  H505  1  0.57027904  0.79697010  0.55759136  1
  O  O506  1  0.82886487  0.99876950  0.55945120  1
  O  O507  1  0.63636559  0.58372691  0.54916610  1
  O  O508  1  0.79256104  0.87270034  0.71879366  1
  H  H509  1  0.61435951  0.64817580  0.62602303  1
  H  H510  1  0.89063725  0.81702236  0.59394528  1
  O  O511  1  0.60783803  0.90326212  0.70010684  1
  C  C512  1  0.53913914  0.76698740  0.59071463  1
  C  C513  1  0.88957300  0.85058310  0.63100968  1
  C  C514  1  0.54955283  0.79010740  0.64072192  1
  O  O515  1  0.94495926  0.91535147  0.64499824  1
  C  C516  1  0.63762223  0.53909297  0.58756879  1
  O  O517  1  0.61637193  0.58073071  0.63511890  1
  H  H518  1  0.50315995  0.89035019  0.53174220  1
  O  O519  1  0.96912192  0.53784733  0.66877408  1
  C  C520  1  0.95213883  0.94972860  0.69122800  1
  H  H521  1  0.51754494  0.76638319  0.71700111  1
  H  H522  1  0.84461165  0.90175377  0.63324718  1
  O  O523  1  0.63900203  0.87880342  0.62004182  1
  C  C524  1  0.97091936  0.63149441  0.67086390  1
  O  O525  1  0.95603729  0.67740886  0.70913601  1
  C  C526  1  0.50961065  0.74492992  0.67812387  1
  C  C527  1  0.90659906  0.94296548  0.73539428  1
  C  C528  1  0.83990607  0.89638846  0.73927430  1
  H  H529  1  0.58373157  0.99658400  0.52494897  1
  C  C530  1  0.77750633  0.71646010  0.87894788  1
  C  C531  1  0.81375944  0.62535548  0.86209682  1
  Zn  Zn532  1  0.71026549  0.60096115  0.89069434  1
  C  C533  1  0.59081013  0.78324042  0.85553919  1
  C  C534  1  0.78590693  0.67898599  0.99389182  1
  C  C535  1  0.67874702  0.59460945  0.96247989  1
  O  O536  1  0.77000193  0.80016627  0.89229680  1
  C  C537  1  0.64082213  0.67756363  0.93895582  1
  C  C538  1  0.94769512  0.93006337  0.94609921  1
  O  O539  1  0.53132732  0.72767812  0.81811299  1
  Zn  Zn540  1  0.56917831  0.78177519  0.94098148  1
  O  O541  1  0.93993005  0.92111327  0.99470271  1
  O  O542  1  0.94068471  0.86532570  0.91603838  1
  C  C543  1  0.78199326  0.52979224  0.85616551  1
  C  C544  1  0.97845006  0.59672221  0.86082565  1
  C  C545  1  0.95426418  0.55489211  0.90487142  1
  O  O546  1  0.59792344  0.86892971  0.84496325  1
  H  H547  1  0.86680993  0.62789895  0.85725010  1
  C  C548  1  0.96321103  0.55370825  0.81092213  1
  C  C549  1  0.63191132  0.70791922  0.89102919  1
  H  H550  1  0.68147643  0.96460866  0.81089490  1
  H  H551  1  0.54185147  0.65966460  0.82466723  1
  H  H552  1  0.92144472  0.60167952  0.98981075  1
  H  H553  1  0.78319560  0.73717517  0.96473907  1
  Zn  Zn554  1  0.84567305  0.96308934  0.81609027  1
  H  H555  1  0.97465035  0.96640802  0.85425426  1
  C  C556  1  0.93223998  0.99444980  0.77921434  1
  O  O557  1  0.50348516  0.99168563  0.97842185  1
  O  O558  1  0.51663541  0.56186743  0.88860490  1
  C  C559  1  0.50469455  0.68060341  0.95129153  1
