# generated using pymatgen
data_CuH2(C3O2)2
_symmetry_space_group_name_H-M   'P 1'
_cell_length_a   26.41890884
_cell_length_b   23.55142066
_cell_length_c   20.96578859
_cell_angle_alpha   90.00000000
_cell_angle_beta   90.00000000
_cell_angle_gamma   90.00000000
_symmetry_Int_Tables_number   1
_chemical_formula_structural   CuH2(C3O2)2
_chemical_formula_sum   'Cu48 H96 C288 O192'
_cell_volume   13044.97310789
_cell_formula_units_Z   48
loop_
 _symmetry_equiv_pos_site_id
 _symmetry_equiv_pos_as_xyz
  1  'x, y, z'
loop_
 _atom_site_type_symbol
 _atom_site_label
 _atom_site_symmetry_multiplicity
 _atom_site_fract_x
 _atom_site_fract_y
 _atom_site_fract_z
 _atom_site_occupancy
  Cu  Cu0  1  0.12024122  0.07646510  0.07122519  1
  O  O1  1  0.14206183  0.03676509  0.14641970  1
  O  O2  1  0.17632693  0.22783768  0.09860974  1
  C  C3  1  0.17065854  0.18490783  0.06072604  1
  O  O4  1  0.17245298  0.13560539  0.08227751  1
  C  C5  1  0.11739846  0.03164694  0.19901859  1
  H  H6  1  0.18540004  0.11483222  0.18827650  1
  H  H7  1  0.15746066  0.29165191  0.02006279  1
  C  C8  1  0.16347993  0.11762993  0.23210954  1
  O  O9  1  0.23405184  0.19758169  0.20061440  1
  Cu  Cu10  1  0.24212173  0.24694828  0.13232784  1
  C  C11  1  0.12841758  0.07436793  0.24764541  1
  O  O12  1  0.25852798  0.29504670  0.07167469  1
  C  C13  1  0.34750638  0.41195758  0.05333297  1
  H  H14  1  0.37335497  0.39404094  0.09095587  1
  C  C15  1  0.30564455  0.38025362  0.03296084  1
  C  C16  1  0.30041292  0.32726410  0.07176113  1
  O  O17  1  0.33472819  0.31231989  0.10281389  1
  O  O18  1  0.42548767  0.48879940  0.08401559  1
  C  C19  1  0.35347007  0.46588550  0.02694937  1
  C  C20  1  0.15250218  0.15951464  0.33523373  1
  H  H21  1  0.15921501  0.19297976  0.37146808  1
  C  C22  1  0.11948336  0.11607073  0.35047165  1
  H  H23  1  0.08395567  0.03615328  0.32333136  1
  C  C24  1  0.10591238  0.07238862  0.30786616  1
  C  C25  1  0.09209796  0.11826795  0.41311046  1
  O  O26  1  0.10188792  0.16023252  0.45280228  1
  C  C27  1  0.17646705  0.15841062  0.27559784  1
  O  O28  1  0.06742041  0.07887617  0.43034385  1
  O  O29  1  0.22492825  0.24426072  0.28859081  1
  O  O30  1  0.00729010  0.28580444  0.46045790  1
  O  O31  1  0.00108630  0.19735302  0.49329115  1
  C  C32  1  0.21267452  0.20646888  0.25507748  1
  C  C33  1  0.47203380  0.26307145  0.41061469  1
  C  C34  1  0.45114483  0.24890275  0.47043186  1
  C  C35  1  0.49083567  0.23518220  0.29743787  1
  O  O36  1  0.48407200  0.48103433  0.37461183  1
  O  O37  1  0.47165411  0.40141773  0.42372986  1
  Cu  Cu38  1  0.35301215  0.00968957  0.39275399  1
  C  C39  1  0.41881291  0.20204959  0.47710986  1
  C  C40  1  0.48991156  0.03422954  0.37124125  1
  H  H41  1  0.43161371  0.14390311  0.32647408  1
  O  O42  1  0.37749834  0.07990194  0.38950590  1
  H  H43  1  0.46088850  0.04656548  0.46846490  1
  C  C44  1  0.48471135  0.06156696  0.42965199  1
  C  C45  1  0.43556167  0.17635960  0.36635811  1
  C  C46  1  0.37890556  0.11571988  0.43600506  1
  O  O47  1  0.36356211  0.10487416  0.48863545  1
  C  C48  1  0.41218242  0.16573712  0.42622036  1
  C  C49  1  0.46504913  0.22388637  0.36171171  1
  H  H50  1  0.48932334  0.30407010  0.39907953  1
  O  O51  1  0.47665153  0.20865758  0.25313957  1
  C  C52  1  0.15179276  0.34004782  0.65730537  1
  C  C53  1  0.07381414  0.37844952  0.61592773  1
  C  C54  1  0.09994096  0.42669964  0.59465383  1
  C  C55  1  0.10107480  0.33384918  0.64724692  1
  C  C56  1  0.17970002  0.38832825  0.63673678  1
  C  C57  1  0.15054455  0.42986604  0.61013207  1
  O  O58  1  0.04041443  0.16361975  0.60619704  1
  H  H59  1  0.08287208  0.29141655  0.65868905  1
  C  C60  1  0.18139397  0.29371211  0.69125507  1
  H  H61  1  0.22088432  0.39310047  0.64221616  1
  O  O62  1  0.22586300  0.29923677  0.68782899  1
  O  O63  1  0.04563806  0.07189571  0.62435263  1
  C  C64  1  0.02712634  0.11579513  0.63790362  1
  O  O65  1  0.15723132  0.24760959  0.70925193  1
  C  C66  1  0.01949676  0.37870919  0.60887477  1
  H  H67  1  0.08149875  0.46129589  0.56687611  1
  H  H68  1  0.20163673  0.00131893  0.72007310  1
  C  C69  1  0.17924292  0.48038507  0.58524785  1
  Cu  Cu70  1  0.17875331  0.17608683  0.72713248  1
  Cu  Cu71  1  0.06486482  0.16764715  0.52922185  1
  O  O72  1  0.22768741  0.48129598  0.59765704  1
  O  O73  1  0.20845405  0.10991781  0.73363743  1
  O  O74  1  0.49665021  0.10630683  0.54959338  1
  C  C75  1  0.49978190  0.09101180  0.72584718  1
  H  H76  1  0.40229969  0.19108991  0.52385828  1
  C  C77  1  0.46240457  0.28763797  0.52382699  1
  O  O78  1  0.48645399  0.10117649  0.67176878  1
  C  C79  1  0.47356645  0.49718732  0.64830713  1
  Cu  Cu80  1  0.46396915  0.40775840  0.50935888  1
  C  C81  1  0.49631619  0.44732050  0.61785775  1
  O  O82  1  0.44611425  0.27751920  0.57459543  1
  H  H83  1  0.39626976  0.47713900  0.62277688  1
  O  O84  1  0.46055430  0.41617212  0.59753072  1
  O  O85  1  0.49029029  0.33460024  0.51393777  1
  C  C86  1  0.12489959  0.13608593  0.83644856  1
  Cu  Cu87  1  0.05563134  0.04942102  0.84949073  1
  H  H88  1  0.12742712  0.24692681  0.81916703  1
  O  O89  1  0.12068145  0.08248804  0.85115120  1
  C  C90  1  0.13455558  0.23270604  0.86923439  1
  C  C91  1  0.13692590  0.17638690  0.88740770  1
  O  O92  1  0.11825068  0.34854558  0.85261641  1
  O  O93  1  0.20999585  0.44550584  0.89728964  1
  C  C94  1  0.12985237  0.33419213  0.90605169  1
  C  C95  1  0.14002229  0.27245380  0.91849658  1
  C  C96  1  0.14613830  0.15907233  0.95000381  1
  H  H97  1  0.14502867  0.11198400  0.95824195  1
  O  O98  1  0.12199762  0.15582780  0.78105185  1
  Cu  Cu99  1  0.14803729  0.44636244  0.93417729  1
  O  O100  1  0.13839326  0.37426337  0.94926182  1
  O  O101  1  0.01951255  0.11004353  0.87140144  1
  C  C102  1  0.15116989  0.25848923  0.98226366  1
  C  C103  1  0.18997571  0.01949836  0.99237548  1
  O  O104  1  0.22322650  0.05181420  0.98351082  1
  C  C105  1  0.24670309  0.47639211  0.91645079  1
  O  O106  1  0.00616630  0.29278422  0.80348878  1
  H  H107  1  0.00535989  0.21158122  0.84563752  1
  C  C108  1  0.15697141  0.20044009  0.99481083  1
  H  H109  1  0.24208994  0.36834927  0.96840212  1
  O  O110  1  0.14212183  0.03570208  0.99806293  1
  C  C111  1  0.24740444  0.10071531  0.77018381  1
  O  O112  1  0.27281982  0.13889348  0.79174968  1
  C  C113  1  0.46771062  0.44784609  0.80255676  1
  C  C114  1  0.27339914  0.39590955  0.98465180  1
  O  O115  1  0.39847303  0.00274455  0.86801839  1
  H  H116  1  0.45638259  0.41354430  0.77182259  1
  C  C117  1  0.31976339  0.49009444  0.98239981  1
  C  C118  1  0.28158222  0.45215151  0.96316335  1
  Cu  Cu119  1  0.45304295  0.01987343  0.81552442  1
  C  C120  1  0.43492359  0.48387627  0.83608061  1
  C  C121  1  0.30409203  0.02832688  0.81379498  1
  C  C122  1  0.37876435  0.47516338  0.82953812  1
  H  H123  1  0.32875266  0.06271252  0.82804525  1
  O  O124  1  0.36195426  0.43804446  0.79739259  1
  C  C125  1  0.26137191  0.03960653  0.77704114  1
  O  O126  1  0.49554961  0.04294492  0.75373475  1
  C  C127  1  0.07319055  0.72618567  0.14360832  1
  O  O128  1  0.09496300  0.61675397  0.11171279  1
  C  C129  1  0.05140407  0.62764906  0.11227402  1
  C  C130  1  0.05956197  0.78262652  0.15356997  1
  H  H131  1  0.11419025  0.71312032  0.14630148  1
  C  C132  1  0.03533578  0.68761432  0.12473938  1
  C  C133  1  0.09769722  0.82458667  0.17613166  1
  O  O134  1  0.08188281  0.87774917  0.17893854  1
  Cu  Cu135  1  0.02127763  0.56221149  0.01364179  1
  O  O136  1  0.13989612  0.81010544  0.18975365  1
  O  O137  1  0.01609064  0.59240636  0.09046914  1
  C  C138  1  0.01114058  0.80100956  0.13641545  1
  O  O139  1  0.08689171  0.99164074  0.20831341  1
  Cu  Cu140  1  0.10995889  0.92669266  0.24465450  1
  H  H141  1  0.23680474  0.80180018  0.01048868  1
  C  C142  1  0.23077754  0.84668004  0.00572490  1
  H  H143  1  0.12353888  0.93083494  0.00087186  1
  C  C144  1  0.16500007  0.92059707  0.00427100  1
  C  C145  1  0.18097081  0.86365696  0.00643721  1
  C  C146  1  0.13544494  0.82406038  0.00711491  1
  O  O147  1  0.14608182  0.76895376  0.01621214  1
  O  O148  1  0.33407464  0.81816060  0.01002751  1
  C  C149  1  0.39526667  0.50561269  0.04615312  1
  O  O150  1  0.39602316  0.55844416  0.02168984  1
  C  C151  1  0.26986100  0.88705912  0.00151906  1
  O  O152  1  0.49346571  0.66341995  0.06268706  1
  O  O153  1  0.42733252  0.78700319  0.23440870  1
  O  O154  1  0.46429658  0.81584722  0.04916638  1
  Cu  Cu155  1  0.44573003  0.61257845  0.03722960  1
  H  H156  1  0.46805000  0.72833106  0.15452134  1
  O  O157  1  0.46424123  0.90684989  0.02199931  1
  C  C158  1  0.32213313  0.87069637  0.00506443  1
  C  C159  1  0.48801427  0.86127498  0.03534873  1
  Cu  Cu160  1  0.40039552  0.80620826  0.01964397  1
  C  C161  1  0.25565288  0.94468491  0.00183522  1
  O  O162  1  0.13210274  0.94351215  0.32133114  1
  C  C163  1  0.12198469  0.91888594  0.37380373  1
  O  O164  1  0.07961668  0.91567431  0.39597369  1
  C  C165  1  0.16218046  0.90131170  0.41937652  1
  C  C166  1  0.14888201  0.87293681  0.47513613  1
  C  C167  1  0.21145953  0.91604275  0.40137421  1
  H  H168  1  0.21621056  0.94420349  0.35874799  1
  H  H169  1  0.11189856  0.86637225  0.49512654  1
  C  C170  1  0.24988356  0.90372891  0.44382400  1
  C  C171  1  0.46472199  0.77792954  0.26463798  1
  O  O172  1  0.47790746  0.80625369  0.31432986  1
  C  C173  1  0.30564416  0.91785442  0.44001638  1
  O  O174  1  0.32173130  0.94074774  0.38835750  1
  O  O175  1  0.33298966  0.91381345  0.48583512  1
  O  O176  1  0.41852797  0.97881342  0.39687252  1
  Cu  Cu177  1  0.47892688  0.88190955  0.31802363  1
  O  O178  1  0.46193863  0.95672835  0.31085328  1
  C  C179  1  0.45514681  0.98745483  0.35836148  1
  O  O180  1  0.13794453  0.81849059  0.58517446  1
  C  C181  1  0.18135825  0.82395446  0.57076194  1
  O  O182  1  0.21766893  0.80869569  0.60911870  1
  Cu  Cu183  1  0.20720228  0.77879243  0.69045846  1
  O  O184  1  0.20662774  0.57769619  0.68607803  1
  O  O185  1  0.09433874  0.72562144  0.68421307  1
  H  H186  1  0.11714189  0.56572794  0.66394560  1
  C  C187  1  0.02294079  0.81383798  0.71198023  1
  O  O188  1  0.01634351  0.54231460  0.64262284  1
  O  O189  1  0.17968644  0.90955203  0.70623016  1
  C  C190  1  0.10940239  0.56242436  0.71679945  1
  H  H191  1  0.00954837  0.78209896  0.67828697  1
  C  C192  1  0.19133621  0.85797410  0.51151921  1
  C  C193  1  0.01319999  0.54746138  0.70220109  1
  C  C194  1  0.10599896  0.76001565  0.72460682  1
  C  C195  1  0.20053667  0.57380092  0.74464879  1
  C  C196  1  0.24120779  0.87446014  0.50098957  1
  C  C197  1  0.06952891  0.80574922  0.74278368  1
  O  O198  1  0.15300065  0.76351901  0.74895126  1
  O  O199  1  0.16024009  0.51600161  0.55411314  1
  C  C200  1  0.21442802  0.89361810  0.73863955  1
  C  C201  1  0.06111392  0.55174241  0.73939910  1
  Cu  Cu202  1  0.25901642  0.53958924  0.63963568  1
  C  C203  1  0.40455582  0.54697494  0.69150556  1
  O  O204  1  0.26098394  0.72478617  0.70368487  1
  C  C205  1  0.43815514  0.58231164  0.72661514  1
  C  C206  1  0.42098200  0.50759998  0.64770475  1
  O  O207  1  0.32141756  0.51869902  0.67105567  1
  H  H208  1  0.27100786  0.86334464  0.53516517  1
  C  C209  1  0.48975449  0.57383347  0.72155299  1
  C  C210  1  0.35120090  0.54806422  0.70660283  1
  C  C211  1  0.30812701  0.73604126  0.72287811  1
  O  O212  1  0.33936050  0.74771042  0.68495129  1
  C  C213  1  0.04730719  0.68709834  0.90044361  1
  O  O214  1  0.06185457  0.64592885  0.87356949  1
  O  O215  1  0.19867923  0.68930138  0.91598069  1
  H  H216  1  0.12469896  0.84204343  0.80988350  1
  C  C217  1  0.07439323  0.93369233  0.84580113  1
  O  O218  1  0.11785687  0.93359576  0.86013621  1
  C  C219  1  0.05544089  0.88967159  0.79983593  1
  O  O220  1  0.07053300  0.70930895  0.95037677  1
  C  C221  1  0.14286722  0.55118976  0.82719597  1
  Cu  Cu222  1  0.14269782  0.71072932  0.95956848  1
  H  H223  1  0.17465155  0.55168667  0.85887748  1
  C  C224  1  0.08895918  0.84515409  0.78527998  1
  O  O225  1  0.23619292  0.58764877  0.78335175  1
  H  H226  1  0.24235465  0.70856023  0.81096643  1
  C  C227  1  0.09367754  0.54108457  0.84886891  1
  C  C228  1  0.05308812  0.54650623  0.80480802  1
  O  O229  1  0.12056885  0.51190434  0.94823877  1
  C  C230  1  0.08317273  0.52918165  0.91594568  1
  O  O231  1  0.03831259  0.52627188  0.93651651  1
  C  C232  1  0.14787534  0.56248114  0.76251173  1
  H  H233  1  0.01638554  0.79589049  0.93210254  1
  O  O234  1  0.04227904  0.97537094  0.86086252  1
  C  C235  1  0.00669865  0.89847176  0.77609746  1
  C  C236  1  0.24269440  0.69261352  0.94007167  1
  C  C237  1  0.24869733  0.93992552  0.76466764  1
  C  C238  1  0.20526236  0.95806477  0.99982602  1
  H  H239  1  0.00367612  0.66276293  0.78959210  1
  O  O240  1  0.09328319  0.83826707  0.99915222  1
  C  C241  1  0.23228380  0.99508602  0.75212239  1
  O  O242  1  0.22149545  0.84030600  0.75187492  1
  C  C243  1  0.00947688  0.72660122  0.86779915  1
  H  H244  1  0.01195459  0.54170079  0.81714610  1
  Cu  Cu245  1  0.41859681  0.90175410  0.94778727  1
  C  C246  1  0.36897152  0.73513860  0.81846026  1
  C  C247  1  0.33476640  0.71348458  0.92388853  1
  O  O248  1  0.25312498  0.52521792  0.89328863  1
  C  C249  1  0.31862632  0.97200747  0.82333313  1
  H  H250  1  0.41655399  0.55127016  0.89970844  1
  C  C251  1  0.28749025  0.70559838  0.89779260  1
  O  O252  1  0.34937647  0.51363485  0.85586805  1
  H  H253  1  0.40173656  0.74447384  0.78974707  1
  H  H254  1  0.30186221  0.88071393  0.80461102  1
  H  H255  1  0.31845459  0.53619087  0.96682357  1
  C  C256  1  0.31980693  0.72845455  0.79366139  1
  C  C257  1  0.37482628  0.72757892  0.88380267  1
  O  O258  1  0.41973093  0.73966488  0.97500057  1
  C  C259  1  0.36472728  0.96570713  0.86017321  1
  O  O260  1  0.47522525  0.61506787  0.95117811  1
  C  C261  1  0.49976670  0.53811887  0.88500987  1
  C  C262  1  0.42435040  0.73493115  0.91499333  1
  C  C263  1  0.27962855  0.71631066  0.83148891  1
  C  C264  1  0.44759394  0.52703983  0.87798719  1
  Cu  Cu265  1  0.29394514  0.54855821  0.82083949  1
  H  H266  1  0.28515846  0.97657805  0.99966851  1
  H  H267  1  0.34317829  0.70949672  0.97945517  1
  C  C268  1  0.29108171  0.92527332  0.79915789  1
  O  O269  1  0.46486780  0.74309194  0.88535287  1
  O  O270  1  0.37488639  0.91420950  0.87502612  1
  O  O271  1  0.47264020  0.89340743  0.89635489  1
  O  O272  1  0.25209587  0.68677252  0.99626014  1
  O  O273  1  0.35837241  0.90570150  0.99896840  1
  H  H274  1  0.41905901  0.61806358  0.75611433  1
  O  O275  1  0.33502818  0.57619087  0.75173202  1
  O  O276  1  0.67281381  0.04959970  0.07669731  1
  C  C277  1  0.71845519  0.05292614  0.06125885  1
  O  O278  1  0.58937891  0.10351647  0.23349113  1
  O  O279  1  0.73365160  0.09002418  0.02034555  1
  Cu  Cu280  1  0.62072831  0.07698524  0.01892628  1
  O  O281  1  0.86860063  0.29654901  0.21561743  1
  C  C282  1  0.75539409  0.00656202  0.06935154  1
  H  H283  1  0.90883626  0.49260252  0.07016631  1
  O  O284  1  0.87778378  0.20755588  0.08010743  1
  O  O285  1  0.87140624  0.41664782  0.13299821  1
  H  H286  1  0.92492668  0.14647558  0.01366566  1
  C  C287  1  0.80537777  0.01090781  0.05153978  1
  C  C288  1  0.85038263  0.45315055  0.16877876  1
  Cu  Cu289  1  0.87680139  0.33621139  0.14050487  1
  O  O290  1  0.90224576  0.02163195  0.02003268  1
  C  C291  1  0.88734469  0.24786736  0.04728222  1
  O  O292  1  0.87121269  0.29909023  0.06015031  1
  H  H293  1  0.81986748  0.05313988  0.03974194  1
  O  O294  1  0.82947853  0.44192105  0.22137529  1
  C  C295  1  0.62722143  0.36521067  0.39906545  1
  C  C296  1  0.66372001  0.40768014  0.38815843  1
  H  H297  1  0.57672460  0.16602684  0.40502219  1
  C  C298  1  0.55585100  0.09929422  0.33680487  1
  C  C299  1  0.65857762  0.02948304  0.46505869  1
  C  C300  1  0.55346053  0.12910603  0.39459286  1
  O  O301  1  0.61652132  0.16944384  0.29653428  1
  Cu  Cu302  1  0.59339832  0.24755581  0.31332773  1
  H  H303  1  0.70445820  0.39931844  0.39293985  1
  C  C304  1  0.65154258  0.30613837  0.39670171  1
  O  O305  1  0.61848108  0.26358530  0.38879422  1
  O  O306  1  0.69525015  0.30080394  0.39164291  1
  C  C307  1  0.72258266  0.05199142  0.38613889  1
  C  C308  1  0.57603067  0.37111101  0.40710322  1
  C  C309  1  0.58950880  0.12428902  0.28562290  1
  C  C310  1  0.67378676  0.02760849  0.40156941  1
  O  O311  1  0.73505618  0.05363239  0.32795831  1
  C  C312  1  0.55720664  0.42590690  0.39669754  1
  C  C313  1  0.50093062  0.43813253  0.39663519  1
  C  C314  1  0.52519563  0.05378154  0.32535177  1
  H  H315  1  0.53016328  0.03078202  0.28124988  1
  O  O316  1  0.52857979  0.27113849  0.29623459  1
  H  H317  1  0.54923595  0.33597771  0.41658911  1
  C  C318  1  0.52058518  0.10553665  0.43807852  1
  C  C319  1  0.64232317  0.46153250  0.39001221  1
  C  C320  1  0.61127997  0.00706008  0.48120302  1
  C  C321  1  0.58998220  0.47137757  0.39470447  1
  O  O322  1  0.74871366  0.07231906  0.43187962  1
  Cu  Cu323  1  0.78651128  0.02564669  0.49126708  1
  O  O324  1  0.88500066  0.47505040  0.34456329  1
  C  C325  1  0.95795620  0.22557080  0.39737212  1
  C  C326  1  0.91426094  0.16071302  0.33142473  1
  C  C327  1  0.91096948  0.25861030  0.30744049  1
  C  C328  1  0.99401870  0.23760434  0.45230243  1
  H  H329  1  0.94835434  0.31462348  0.37127927  1
  Cu  Cu330  1  0.80126530  0.05830957  0.30132794  1
  C  C331  1  0.93924812  0.27091163  0.36195788  1
  H  H332  1  0.95500838  0.13507509  0.41622440  1
  C  C333  1  0.89874327  0.09978186  0.31888295  1
  O  O334  1  0.90420935  0.35599034  0.28099342  1
  C  C335  1  0.94334157  0.17056369  0.38683849  1
  C  C336  1  0.89600528  0.30518955  0.26368498  1
  Cu  Cu337  1  0.86072240  0.41810250  0.29607054  1
  C  C338  1  0.89691316  0.20243133  0.29015163  1
  O  O339  1  0.91793759  0.06230354  0.34756147  1
  O  O340  1  0.86187325  0.09198374  0.27702440  1
  H  H341  1  0.87143445  0.19250182  0.25220901  1
  Cu  Cu342  1  0.56159575  0.36435241  0.65974584  1
  O  O343  1  0.58475064  0.29281217  0.68763995  1
  O  O344  1  0.61950726  0.04382447  0.58083864  1
  H  H345  1  0.53150519  0.19373791  0.68552631  1
  O  O346  1  0.54181167  0.43216365  0.61974222  1
  C  C347  1  0.54262342  0.18398668  0.73555758  1
  C  C348  1  0.59427354  0.27493848  0.74244385  1
  C  C349  1  0.72726749  0.07019235  0.72807720  1
  C  C350  1  0.73971416  0.04267093  0.61611592  1
  C  C351  1  0.59157840  0.01509820  0.54452699  1
  Cu  Cu352  1  0.51570086  0.05681472  0.60801596  1
  O  O353  1  0.54266266  0.17613979  0.51290576  1
  C  C354  1  0.52049815  0.13311848  0.50470615  1
  O  O355  1  0.54541220  0.00643108  0.55580452  1
  H  H356  1  0.71618997  0.02749961  0.73951375  1
  C  C357  1  0.74276885  0.08480979  0.66610549  1
  Cu  Cu358  1  0.64468134  0.00380778  0.65468489  1
  O  O359  1  0.53484671  0.39045096  0.73985862  1
  H  H360  1  0.68251585  0.04842701  0.50112359  1
  O  O361  1  0.99551971  0.41588289  0.57590176  1
  O  O362  1  0.78857680  0.25034595  0.64191443  1
  Cu  Cu363  1  0.98116430  0.48811786  0.60077404  1
  O  O364  1  0.75436245  0.05787564  0.56131893  1
  C  C365  1  0.75904857  0.14125208  0.65327620  1
  C  C366  1  0.91019699  0.25241909  0.74865655  1
  O  O367  1  0.77962280  0.27352260  0.74290054  1
  C  C368  1  0.75846035  0.17866323  0.70351136  1
  C  C369  1  0.98672872  0.12518749  0.68673442  1
  C  C370  1  0.92770840  0.19346308  0.73699635  1
  H  H371  1  0.98243478  0.21262390  0.66377560  1
  C  C372  1  0.77623889  0.23807586  0.69410386  1
  H  H373  1  0.76911350  0.15384687  0.60524428  1
  H  H374  1  0.98261827  0.03454014  0.71824539  1
  Cu  Cu375  1  0.99748820  0.31696868  0.72291590  1
  O  O376  1  0.99532571  0.34087705  0.63895352  1
  O  O377  1  0.93189656  0.28753199  0.71132862  1
  C  C378  1  0.96821039  0.07988241  0.72226047  1
  C  C379  1  0.96560075  0.17889197  0.69375319  1
  C  C380  1  0.57827416  0.15426417  0.85955479  1
  H  H381  1  0.61597845  0.23193225  0.86027771  1
  C  C382  1  0.54780608  0.11637982  0.82467118  1
  H  H383  1  0.68317958  0.44298699  0.87144247  1
  C  C384  1  0.59793872  0.14712383  0.92388202  1
  O  O385  1  0.57989967  0.11033089  0.96067810  1
  O  O386  1  0.63780911  0.17504857  0.93768477  1
  O  O387  1  0.71250314  0.36573318  0.80741387  1
  C  C388  1  0.59049890  0.20601061  0.82983210  1
  C  C389  1  0.71846965  0.46912872  0.86777801  1
  C  C390  1  0.51877220  0.46197720  0.81222935  1
  H  H391  1  0.53727923  0.07404621  0.84584064  1
  Cu  Cu392  1  0.69008847  0.13100882  0.97182275  1
  O  O393  1  0.69648127  0.04348972  0.85273184  1
  C  C394  1  0.71797192  0.09028194  0.84389686  1
  O  O395  1  0.60083168  0.43556595  0.78164342  1
  C  C396  1  0.55446707  0.42830235  0.77641370  1
  Cu  Cu397  1  0.64719113  0.37755794  0.77312195  1
  C  C398  1  0.72999861  0.10823760  0.77861003  1
  C  C399  1  0.57534091  0.22019070  0.76813646  1
  C  C400  1  0.52989203  0.13206096  0.76510990  1
  O  O401  1  0.72534035  0.12323860  0.89014046  1
  O  O402  1  0.61433243  0.00422964  0.97115958  1
  C  C403  1  0.74659122  0.16280392  0.76635213  1
  H  H404  1  0.74840580  0.19481571  0.80347280  1
  O  O405  1  0.62396281  0.30054592  0.78125425  1
  C  C406  1  0.90775066  0.05049623  0.80288426  1
  C  C407  1  0.75612673  0.45178514  0.82527156  1
  C  C408  1  0.75002663  0.39568368  0.79541552  1
  C  C409  1  0.96827211  0.17093622  0.92899151  1
  C  C410  1  0.98359829  0.21670795  0.89028921  1
  H  H411  1  0.88205847  0.15778767  0.81174523  1
  O  O412  1  0.87483653  0.26806206  0.78258825  1
  C  C413  1  0.92080831  0.23880559  0.99085642  1
  O  O414  1  0.96655789  0.07014388  0.93986010  1
  H  H415  1  0.82231893  0.46754145  0.76939437  1
  Cu  Cu416  1  0.82907112  0.32727346  0.76812610  1
  C  C417  1  0.93780049  0.18155631  0.98052867  1
  C  C418  1  0.96727221  0.27167511  0.90268437  1
  O  O419  1  0.87881561  0.06288013  0.84796011  1
  C  C420  1  0.79655221  0.48659274  0.80587182  1
  C  C421  1  0.92850642  0.09479388  0.76309227  1
  O  O422  1  0.96344556  0.36081652  0.85451458  1
  O  O423  1  0.78381522  0.38178538  0.75406648  1
  H  H424  1  0.92060111  0.32722088  0.96954678  1
  C  C425  1  0.93500357  0.28582294  0.95573566  1
  C  C426  1  0.98063378  0.31443333  0.85412571  1
  C  C427  1  0.90858425  0.14995963  0.77383159  1
  Cu  Cu428  1  0.89860021  0.04287774  0.93316872  1
  C  C429  1  0.98490658  0.11387321  0.91492901  1
  C  C430  1  0.53368867  0.65003962  0.09413181  1
  C  C431  1  0.54002930  0.67749747  0.15641137  1
  H  H432  1  0.69310834  0.95384806  0.09967520  1
  O  O433  1  0.56567906  0.61881122  0.06960928  1
  H  H434  1  0.61586542  0.64233487  0.17157062  1
  C  C435  1  0.58319475  0.66446612  0.19209731  1
  O  O436  1  0.70102829  0.85421415  0.12050723  1
  O  O437  1  0.62631891  0.70379286  0.04071159  1
  H  H438  1  0.54970768  0.76574149  0.05281484  1
  C  C439  1  0.56818172  0.80391606  0.03699662  1
  C  C440  1  0.64734736  0.74973045  0.02509451  1
  C  C441  1  0.61895646  0.80418766  0.02010682  1
  C  C442  1  0.54245881  0.85661331  0.02923692  1
  O  O443  1  0.69218453  0.74849829  0.00614864  1
  C  C444  1  0.56642334  0.90648508  0.00863871  1
  C  C445  1  0.73581154  0.95634246  0.09346386  1
  C  C446  1  0.74497660  0.85440171  0.11317912  1
  C  C447  1  0.50132301  0.71186673  0.18232294  1
  C  C448  1  0.50503289  0.73561626  0.24180536  1
  C  C449  1  0.64688739  0.85286575  0.00061326  1
  H  H450  1  0.99838635  0.84625511  0.14052434  1
  Cu  Cu451  1  0.75269080  0.74331068  0.05811329  1
  O  O452  1  0.79720997  0.70623299  0.16038186  1
  Cu  Cu453  1  0.84162237  0.76505014  0.17827871  1
  C  C454  1  0.88505356  0.52512216  0.09379258  1
  O  O455  1  0.77026366  0.64137879  0.22633517  1
  C  C456  1  0.82589325  0.60934334  0.14795907  1
  C  C457  1  0.79703498  0.65588155  0.17906934  1
  C  C458  1  0.83821587  0.96394304  0.05872387  1
  C  C459  1  0.92403285  0.78066620  0.10356073  1
  H  H460  1  0.79504863  0.53930225  0.20709962  1
  C  C461  1  0.82156377  0.55415796  0.16958462  1
  O  O462  1  0.91890720  0.83182197  0.09184005  1
  H  H463  1  0.84272965  0.87361341  0.07724296  1
  H  H464  1  0.85639230  0.66632606  0.07304926  1
  C  C465  1  0.76868972  0.91010880  0.09587024  1
  C  C466  1  0.85640785  0.62309359  0.09558460  1
  C  C467  1  0.91924876  0.59128099  0.01533905  1
  C  C468  1  0.98497103  0.70114041  0.11545432  1
  O  O469  1  0.88777443  0.74668120  0.11149932  1
  C  C470  1  0.85282640  0.51202055  0.14475468  1
  O  O471  1  0.92499106  0.93465250  0.04715898  1
  C  C472  1  0.81891768  0.91118899  0.08006002  1
  C  C473  1  0.89113691  0.97088379  0.04079905  1
  O  O474  1  0.77496078  0.80942590  0.10122285  1
  C  C475  1  0.88710788  0.58082311  0.07213817  1
  Cu  Cu476  1  0.93815738  0.86504767  0.01271789  1
  C  C477  1  0.97530996  0.75889327  0.12095396  1
  H  H478  1  0.95493340  0.66743169  0.10255175  1
  O  O479  1  0.80033517  0.78936154  0.24952959  1
  O  O480  1  0.63744839  0.67919160  0.34945315  1
  Cu  Cu481  1  0.68884888  0.63202455  0.39051699  1
  O  O482  1  0.54572613  0.89950800  0.35065939  1
  C  C483  1  0.58197917  0.93023592  0.32444211  1
  H  H484  1  0.55343560  0.73184341  0.32688331  1
  H  H485  1  0.55225548  0.95149585  0.44802267  1
  C  C486  1  0.60486116  0.96857834  0.37422036  1
  C  C487  1  0.58686064  0.97246574  0.43639737  1
  C  C488  1  0.67715072  0.51157076  0.37977499  1
  C  C489  1  0.54744976  0.71891232  0.27697855  1
  C  C490  1  0.63342686  0.67650989  0.28895647  1
  O  O491  1  0.73520958  0.68256035  0.42655173  1
  H  H492  1  0.57997900  0.51811516  0.38950607  1
  O  O493  1  0.59392248  0.92670338  0.27146151  1
  C  C494  1  0.64741334  0.99749651  0.35415714  1
  H  H495  1  0.66041524  0.99649404  0.30575034  1
  O  O496  1  0.65605349  0.56163867  0.37140256  1
  O  O497  1  0.72217496  0.50394915  0.37762283  1
  Cu  Cu498  1  0.73811288  0.68660604  0.27986091  1
  C  C499  1  0.58644889  0.68333385  0.25545179  1
  O  O500  1  0.67156875  0.66153675  0.25602070  1
  C  C501  1  0.76226126  0.66270201  0.47146225  1
  C  C502  1  0.87959725  0.53707188  0.46602716  1
  C  C503  1  0.81387541  0.86682864  0.34461312  1
  H  H504  1  0.90770367  0.50309131  0.46359222  1
  O  O505  1  0.83179380  0.99720755  0.42945628  1
  C  C506  1  0.82216477  0.90404847  0.39581904  1
  O  O507  1  0.81498969  0.98336073  0.32697190  1
  O  O508  1  0.79849052  0.71595659  0.31023214  1
  C  C509  1  0.85755788  0.55757185  0.41040011  1
  C  C510  1  0.80351883  0.76921528  0.30399230  1
  C  C511  1  0.87168878  0.52796625  0.34896292  1
  C  C512  1  0.80503787  0.62530414  0.46726002  1
  O  O513  1  0.85587306  0.55264323  0.30166403  1
  C  C514  1  0.83032516  0.88386900  0.45770767  1
  H  H515  1  0.81157810  0.61862145  0.36316685  1
  C  C516  1  0.82456921  0.82587550  0.46842591  1
  C  C517  1  0.81166046  0.80846595  0.35842790  1
  H  H518  1  0.81212573  0.74213925  0.43235740  1
  C  C519  1  0.81337040  0.78708547  0.42012302  1
  C  C520  1  0.82162480  0.96536756  0.38308123  1
  C  C521  1  0.82426899  0.60325874  0.41047766  1
  H  H522  1  0.81627993  0.88389287  0.29679325  1
  H  H523  1  0.84182834  0.91397691  0.49526789  1
  O  O524  1  0.65510901  0.96598102  0.72962463  1
  O  O525  1  0.69312478  0.88453586  0.71591721  1
  H  H526  1  0.54803803  0.52094623  0.68121746  1
  O  O527  1  0.74733117  0.67606241  0.52818851  1
  C  C528  1  0.50764185  0.53153383  0.68181129  1
  C  C529  1  0.66186652  0.91227918  0.74289169  1
  O  O530  1  0.71547216  0.99563651  0.62243379  1
  O  O531  1  0.56662879  0.61499824  0.73875442  1
  O  O532  1  0.75725458  0.68643215  0.70862433  1
  C  C533  1  0.88361029  0.54322785  0.58656999  1
  Cu  Cu534  1  0.76455043  0.72586921  0.58916352  1
  C  C535  1  0.94097950  0.86347822  0.70455379  1
  C  C536  1  0.82844198  0.60513493  0.52355973  1
  O  O537  1  0.82216228  0.75111573  0.54381051  1
  O  O538  1  0.97095749  0.55083358  0.73031608  1
  C  C539  1  0.99140486  0.85845810  0.73190595  1
  C  C540  1  0.92080809  0.71279850  0.72509381  1
  O  O541  1  0.92418441  0.82525147  0.66615622  1
  O  O542  1  0.87967298  0.73719244  0.70923229  1
  C  C543  1  0.86514667  0.56255280  0.52339600  1
  C  C544  1  0.83199770  0.80396216  0.53149235  1
  H  H545  1  0.81517453  0.61788138  0.57112758  1
  O  O546  1  0.87265335  0.56996933  0.63481934  1
  H  H547  1  0.78834896  0.84824396  0.72962364  1
  O  O548  1  0.84461707  0.83522120  0.57710300  1
  O  O549  1  0.91663064  0.90777690  0.71544872  1
  C  C550  1  0.76861494  0.73512940  0.71176901  1
  O  O551  1  0.93610343  0.67155266  0.69437314  1
  Cu  Cu552  1  0.86135272  0.79181542  0.64739954  1
  O  O553  1  0.77453805  0.76451576  0.65788084  1
  Cu  Cu554  1  0.91012362  0.59320137  0.70599509  1
  O  O555  1  0.91285844  0.50061518  0.58651629  1
  C  C556  1  0.60137168  0.80745323  0.85785940  1
  C  C557  1  0.68601689  0.54939645  0.93474900  1
  Cu  Cu558  1  0.66050760  0.65624724  0.90769281  1
  O  O559  1  0.64100584  0.71918276  0.85793944  1
  O  O560  1  0.56609840  0.72518749  0.90402839  1
  O  O561  1  0.68864867  0.60205252  0.95451717  1
  C  C562  1  0.60507524  0.74759866  0.87721457  1
  C  C563  1  0.58812794  0.91914984  0.81378480  1
  O  O564  1  0.68676261  0.95733362  0.96570874  1
  O  O565  1  0.55709835  0.60258376  0.93175496  1
  C  C566  1  0.55648673  0.83550553  0.87326099  1
  C  C567  1  0.55218094  0.89134420  0.85027431  1
  C  C568  1  0.63486492  0.82963171  0.81447844  1
  C  C569  1  0.72487413  0.52380272  0.89140095  1
  C  C570  1  0.63942015  0.95867355  0.97950689  1
  H  H571  1  0.58452942  0.96257493  0.79185322  1
  C  C572  1  0.62809579  0.88526836  0.79168391  1
  H  H573  1  0.66965019  0.80717487  0.79824075  1
  H  H574  1  0.52724624  0.81380699  0.90126196  1
  O  O575  1  0.64794388  0.52277897  0.94431264  1
  C  C576  1  0.51327381  0.58733229  0.92648203  1
  Cu  Cu577  1  0.71963622  0.98129937  0.89556078  1
  O  O578  1  0.50136897  0.65646909  0.78891154  1
  Cu  Cu579  1  0.58565910  0.65291570  0.99222284  1
  Cu  Cu580  1  0.51423769  0.68653913  0.86588151  1
  C  C581  1  0.61868587  0.90359850  0.99745954  1
  H  H582  1  0.68537096  0.85253525  0.99179075  1
  C  C583  1  0.53528074  0.50672280  0.85144000  1
  C  C584  1  0.50626231  0.92224589  0.86757368  1
  O  O585  1  0.50316806  0.97422025  0.85378626  1
  H  H586  1  0.57485305  0.51556516  0.85117695  1
  C  C587  1  0.52363488  0.61825156  0.75420819  1
  H  H588  1  0.54503864  0.94579329  0.99966578  1
  O  O589  1  0.92316597  0.99911770  0.79612329  1
  C  C590  1  0.78373581  0.82600850  0.77396178  1
  O  O591  1  0.87434572  0.55143065  0.76599944  1
  O  O592  1  0.85177418  0.62143029  0.83070921  1
  O  O593  1  0.80065099  0.74920898  0.99357223  1
  Cu  Cu594  1  0.87029498  0.64721779  0.91434614  1
  O  O595  1  0.77715119  0.93739657  0.89258233  1
  C  C596  1  0.98780361  0.70347525  0.81237757  1
  H  H597  1  0.98334888  0.93525588  0.78842084  1
  O  O598  1  0.95330149  0.88721448  0.93289525  1
  C  C599  1  0.79210786  0.91293752  0.84232502  1
  C  C600  1  0.78282491  0.82055503  0.89039620  1
  O  O601  1  0.91306670  0.63903479  0.98743324  1
  C  C602  1  0.79972633  0.54206625  0.82816647  1
  C  C603  1  0.99514208  0.77906452  0.89070260  1
  C  C604  1  0.76286233  0.56001945  0.87033463  1
  O  O605  1  0.89608644  0.88109191  0.85666850  1
  C  C606  1  0.92840105  0.78068858  0.81109235  1
  C  C607  1  0.94661801  0.72972849  0.78458198  1
  C  C608  1  0.77504863  0.76704630  0.77210093  1
  C  C609  1  0.93596325  0.86193111  0.88590502  1
  C  C610  1  0.84748409  0.57236462  0.81022552  1
  C  C611  1  0.79622958  0.72614007  0.93775644  1
  C  C612  1  0.78292745  0.76032171  0.88431058  1
  H  H613  1  0.89565182  0.80339492  0.79515858  1
  H  H614  1  0.77461500  0.68532855  0.82297826  1
  C  C615  1  0.95268483  0.80641401  0.86266590  1
  O  O616  1  0.94806916  0.55536540  0.99250184  1
  O  O617  1  0.80574165  0.67379129  0.92901372  1
  C  C618  1  0.78526654  0.84994488  0.83397609  1
  H  H619  1  0.76818202  0.60290389  0.89221636  1
  C  C620  1  0.77443178  0.73274724  0.82724758  1
  O  O621  1  0.81448621  0.93843527  0.79947253  1
  H  H622  1  0.78733920  0.84006683  0.93620729  1
  Cu  Cu623  1  0.88515868  0.93366280  0.79296066  1
