# generated using pymatgen
data_CuH2(C3O2)2
_symmetry_space_group_name_H-M   'P 1'
_cell_length_a   24.10737325
_cell_length_b   23.28605456
_cell_length_c   22.58992521
_cell_angle_alpha   90.00000000
_cell_angle_beta   90.00000000
_cell_angle_gamma   90.00000000
_symmetry_Int_Tables_number   1
_chemical_formula_structural   CuH2(C3O2)2
_chemical_formula_sum   'Cu48 H96 C288 O192'
_cell_volume   12681.20711839
_cell_formula_units_Z   48
loop_
 _symmetry_equiv_pos_site_id
 _symmetry_equiv_pos_as_xyz
  1  'x, y, z'
loop_
 _atom_site_type_symbol
 _atom_site_label
 _atom_site_symmetry_multiplicity
 _atom_site_fract_x
 _atom_site_fract_y
 _atom_site_fract_z
 _atom_site_occupancy
  H  H0  1  0.01846186  0.01653174  0.03098280  1
  H  H1  1  0.00245548  0.16840047  0.09055969  1
  C  C2  1  0.35733834  0.37267556  0.19110209  1
  O  O3  1  0.26961509  0.30802792  0.04066032  1
  C  C4  1  0.35642681  0.46678967  0.24535580  1
  C  C5  1  0.42686139  0.22442003  0.08596882  1
  O  O6  1  0.46912615  0.23387928  0.11024961  1
  O  O7  1  0.25260942  0.47734229  0.09708205  1
  Cu  Cu8  1  0.36867529  0.24423750  0.19225047  1
  O  O9  1  0.38701203  0.32836212  0.18033334  1
  Cu  Cu10  1  0.30231081  0.41318823  0.08623257  1
  C  C11  1  0.38030756  0.41234114  0.23404257  1
  O  O12  1  0.37934022  0.22368945  0.11299085  1
  O  O13  1  0.31229859  0.38468813  0.16576732  1
  C  C14  1  0.42250039  0.21486421  0.01838190  1
  H  H15  1  0.33606113  0.19310370  0.02241277  1
  H  H16  1  0.31915385  0.47916837  0.22259526  1
  H  H17  1  0.19990736  0.48822516  0.00375689  1
  O  O18  1  0.28990080  0.39360091  0.00901665  1
  C  C19  1  0.26392287  0.34443032  0.00440478  1
  C  C20  1  0.14488154  0.31804210  0.40964151  1
  C  C21  1  0.32038443  0.42502209  0.37201335  1
  C  C22  1  0.35987636  0.32883651  0.36013165  1
  C  C23  1  0.06821417  0.35697946  0.35114145  1
  O  O24  1  0.01920017  0.35639412  0.33558809  1
  C  C25  1  0.40933274  0.39480229  0.42093144  1
  O  O26  1  0.44084674  0.35262878  0.43292378  1
  H  H27  1  0.16135158  0.36242821  0.41015259  1
  C  C28  1  0.44696333  0.42899763  0.30918789  1
  O  O29  1  0.09577829  0.40317683  0.35038995  1
  C  C30  1  0.09601903  0.30628430  0.37953413  1
  O  O31  1  0.03205924  0.14499615  0.37421099  1
  C  C32  1  0.42819194  0.39443272  0.26394288  1
  C  C33  1  0.36010776  0.38403399  0.38274206  1
  C  C34  1  0.17578333  0.26942976  0.42846628  1
  C  C35  1  0.27151201  0.41144044  0.33955846  1
  Cu  Cu36  1  0.11014536  0.45165946  0.28717964  1
  C  C37  1  0.15772228  0.21200882  0.42593157  1
  O  O38  1  0.24509060  0.33406756  0.45881697  1
  C  C39  1  0.22993245  0.28323100  0.45422856  1
  C  C40  1  0.31132934  0.31844688  0.32805674  1
  O  O41  1  0.18707361  0.43337081  0.29364765  1
  H  H42  1  0.32944487  0.46793438  0.38683500  1
  O  O43  1  0.42226676  0.44417211  0.43637882  1
  C  C44  1  0.22880702  0.45179314  0.32294078  1
  H  H45  1  0.18115921  0.17641204  0.44113732  1
  H  H46  1  0.39468953  0.29789636  0.36893234  1
  C  C47  1  0.26616030  0.35354496  0.32236539  1
  H  H48  1  0.23090957  0.33841110  0.29476338  1
  C  C49  1  0.42476507  0.48372561  0.32214719  1
  C  C50  1  0.00313050  0.45683427  0.46361840  1
  C  C51  1  0.07228089  0.25247855  0.37870515  1
  O  O52  1  0.10369258  0.10399808  0.41273830  1
  O  O53  1  0.07580171  0.00055062  0.46795967  1
  C  C54  1  0.07790578  0.14951086  0.39391649  1
  C  C55  1  0.10566046  0.20836126  0.40030998  1
  C  C56  1  0.31001379  0.26351604  0.28963485  1
  H  H57  1  0.44895244  0.35443421  0.25306490  1
  O  O58  1  0.00184533  0.40462849  0.44746288  1
  H  H59  1  0.03031061  0.24089384  0.36064769  1
  O  O60  1  0.25704786  0.24201070  0.47605423  1
  Cu  Cu61  1  0.49555692  0.47709331  0.44965068  1
  Cu  Cu62  1  0.09455375  0.07219047  0.49106250  1
  O  O63  1  0.26819787  0.23601308  0.28018614  1
  O  O64  1  0.36043173  0.24912951  0.27140579  1
  C  C65  1  0.49714937  0.41816834  0.34594389  1
  O  O66  1  0.03663625  0.49185994  0.43974869  1
  H  H67  1  0.38008471  0.48053877  0.55291228  1
  Cu  Cu68  1  0.24101818  0.21122158  0.55368982  1
  C  C69  1  0.37010588  0.21692345  0.62271445  1
  H  H70  1  0.33138753  0.20030162  0.64079710  1
  H  H71  1  0.33517679  0.38288675  0.71377789  1
  C  C72  1  0.42301045  0.39192519  0.68765544  1
  O  O73  1  0.31743055  0.34092649  0.54741434  1
  C  C74  1  0.15463812  0.13283268  0.57217922  1
  O  O75  1  0.20547794  0.14166761  0.56220514  1
  O  O76  1  0.27275733  0.27190262  0.59770904  1
  C  C77  1  0.36556452  0.40080211  0.67962531  1
  C  C78  1  0.14412917  0.11107412  0.63116634  1
  O  O79  1  0.37900234  0.11299093  0.68566314  1
  C  C80  1  0.18328480  0.09872863  0.67387772  1
  C  C81  1  0.42003910  0.18865456  0.63234934  1
  C  C82  1  0.36892915  0.26485893  0.58616372  1
  H  H83  1  0.22717085  0.10745123  0.66277035  1
  C  C84  1  0.46625691  0.41248158  0.65267856  1
  O  O85  1  0.26912291  0.44630436  0.57249449  1
  C  C86  1  0.46577552  0.25675571  0.56662265  1
  C  C87  1  0.39263265  0.45165262  0.58962382  1
  C  C88  1  0.45009568  0.44772186  0.60554539  1
  C  C89  1  0.35363916  0.42960266  0.62812365  1
  C  C90  1  0.42620615  0.13603229  0.66817769  1
  C  C91  1  0.31676135  0.29466808  0.57536216  1
  H  H92  1  0.41348375  0.32575050  0.52765388  1
  C  C93  1  0.07713440  0.07776429  0.70032088  1
  C  C94  1  0.08774505  0.10231929  0.64565000  1
  C  C95  1  0.28881282  0.43343877  0.62386836  1
  O  O96  1  0.25991768  0.42273937  0.66650219  1
  C  C97  1  0.41512126  0.28582396  0.55600494  1
  Cu  Cu98  1  0.36644130  0.03403591  0.67113921  1
  H  H99  1  0.04994495  0.11171966  0.61883720  1
  C  C100  1  0.17185803  0.07700926  0.73086001  1
  O  O101  1  0.11642235  0.13920633  0.53349869  1
  C  C102  1  0.01569719  0.06979622  0.71106276  1
  C  C103  1  0.46828699  0.20996061  0.60355317  1
  C  C104  1  0.11575106  0.06668352  0.74416859  1
  O  O105  1  0.47005967  0.11366443  0.67651486  1
  Cu  Cu106  1  0.25682412  0.38994179  0.51835432  1
  C  C107  1  0.43406177  0.35617640  0.74064597  1
  C  C108  1  0.49068004  0.47775577  0.57031466  1
  O  O109  1  0.48842063  0.34280797  0.74635438  1
  O  O110  1  0.40014696  0.01081790  0.74844791  1
  O  O111  1  0.10707888  0.07151142  0.89172258  1
  H  H112  1  0.10190983  0.05138897  0.78612808  1
  O  O113  1  0.26267914  0.07660824  0.76503818  1
  H  H114  1  0.42172156  0.19527972  0.84824686  1
  O  O115  1  0.13233631  0.40249103  0.78033643  1
  C  C116  1  0.21278570  0.06421855  0.77550003  1
  O  O117  1  0.19887260  0.45163077  0.82040987  1
  C  C118  1  0.37171468  0.19423739  0.93106677  1
  O  O119  1  0.08088823  0.21343153  0.88479603  1
  C  C120  1  0.22066019  0.37112034  0.90627742  1
  C  C121  1  0.31684385  0.17693420  0.90406584  1
  Cu  Cu122  1  0.31625895  0.08256658  0.82308209  1
  O  O123  1  0.31284005  0.16009169  0.84935316  1
  C  C124  1  0.42046389  0.19859544  0.89831128  1
  C  C125  1  0.08896096  0.00842290  0.97022386  1
  C  C126  1  0.16029711  0.26996509  0.90956509  1
  H  H127  1  0.11750933  0.30764152  0.83293961  1
  C  C128  1  0.22718531  0.33116819  0.95274753  1
  H  H129  1  0.24672346  0.40871983  0.90060692  1
  O  O130  1  0.33387207  0.00516231  0.81519462  1
  C  C131  1  0.18137047  0.36146141  0.86390336  1
  Cu  Cu132  1  0.17483711  0.11347306  0.88396578  1
  C  C133  1  0.37315482  0.19844757  0.99358591  1
  C  C134  1  0.19948045  0.27870629  0.95504409  1
  C  C135  1  0.12740039  0.21651085  0.91010773  1
  O  O136  1  0.14959713  0.17433628  0.93343403  1
  H  H137  1  0.20365103  0.24822220  0.99082785  1
  C  C138  1  0.07382696  0.05713053  0.93188233  1
  C  C139  1  0.15079096  0.31112636  0.86578108  1
  Cu  Cu140  1  0.02533064  0.17359640  0.92479445  1
  O  O141  1  0.27677576  0.17283972  0.93590808  1
  C  C142  1  0.16974993  0.40623544  0.81624106  1
  O  O143  1  0.19682398  0.05518774  0.82995625  1
  O  O144  1  0.03116999  0.08771338  0.94135919  1
  C  C145  1  0.46973617  0.21413493  0.92528059  1
  C  C146  1  0.47027405  0.22389438  0.98647223  1
  O  O147  1  0.12685222  0.49676401  0.92238212  1
  O  O148  1  0.02339588  0.46922855  0.88423848  1
  O  O149  1  0.02461629  0.20857526  0.99786739  1
  O  O150  1  0.00840577  0.38778176  0.93124641  1
  O  O151  1  0.39636337  0.33729351  0.76801879  1
  O  O152  1  0.00163401  0.04425841  0.76047567  1
  H  H153  1  0.02580862  0.80233690  0.04959905  1
  H  H154  1  0.14754889  0.89822119  0.08291982  1
  O  O155  1  0.08322323  0.54777686  0.01846403  1
  C  C156  1  0.26035820  0.61974402  0.03312138  1
  H  H157  1  0.09028289  0.72042579  0.06957293  1
  C  C158  1  0.05902336  0.99701115  0.02045725  1
  C  C159  1  0.10943619  0.76067254  0.18563312  1
  C  C160  1  0.04993427  0.95228972  0.12043592  1
  C  C161  1  0.12831196  0.92873896  0.05034192  1
  C  C162  1  0.07974982  0.95701944  0.06326144  1
  C  C163  1  0.24120153  0.56387221  0.04019995  1
  C  C164  1  0.01385634  0.83397319  0.01525651  1
  Cu  Cu165  1  0.05567736  0.85910797  0.20498892  1
  O  O166  1  0.49635630  0.86264167  0.12600158  1
  O  O167  1  0.08965152  0.80581331  0.15915343  1
  O  O168  1  0.07568088  0.92823125  0.16257782  1
  O  O169  1  0.12422189  0.76701799  0.23567710  1
  Cu  Cu170  1  0.46235045  0.83873811  0.05884984  1
  C  C171  1  0.09997122  0.62861322  0.09071235  1
  C  C172  1  0.10074474  0.68641344  0.10241121  1
  H  H173  1  0.10386702  0.54073648  0.11723757  1
  C  C174  1  0.10942159  0.58537878  0.13265220  1
  C  C175  1  0.08887209  0.60399364  0.02859331  1
  C  C176  1  0.12634429  0.60225894  0.18981123  1
  C  C177  1  0.11178101  0.69942419  0.16170160  1
  O  O178  1  0.29967766  0.55248300  0.12338409  1
  C  C179  1  0.26561786  0.53179469  0.09046485  1
  H  H180  1  0.28863177  0.64055627  0.06444592  1
  C  C181  1  0.13113017  0.66032690  0.20363259  1
  O  O182  1  0.23276386  0.87808093  0.02009477  1
  O  O183  1  0.12492398  0.50588916  0.22739416  1
  C  C184  1  0.13778424  0.55697063  0.23463869  1
  Cu  Cu185  1  0.28211127  0.82068406  0.00072210  1
  O  O186  1  0.11055091  0.77779505  0.00239914  1
  O  O187  1  0.00351321  0.97526527  0.12660066  1
  O  O188  1  0.28058993  0.74428628  0.01142609  1
  C  C189  1  0.20618085  0.53482589  0.00031047  1
  O  O190  1  0.16216340  0.57389378  0.28054660  1
  O  O191  1  0.11207731  0.67481330  0.43657173  1
  C  C192  1  0.01735518  0.91668251  0.45498328  1
  O  O193  1  0.36959707  0.59119449  0.33800248  1
  Cu  Cu194  1  0.23583003  0.56708717  0.27861772  1
  C  C195  1  0.05106679  0.95596957  0.49295960  1
  C  C196  1  0.35398412  0.55836857  0.30092834  1
  Cu  Cu197  1  0.02915885  0.56956350  0.41661938  1
  C  C198  1  0.01490101  0.91580788  0.39408233  1
  O  O199  1  0.02410454  0.89707222  0.26861119  1
  H  H200  1  0.04154666  0.94698193  0.36938740  1
  C  C201  1  0.10857394  0.64268729  0.47658269  1
  O  O202  1  0.08369866  0.59219626  0.47140487  1
  O  O203  1  0.31031897  0.57032848  0.26923121  1
  H  H204  1  0.44105994  0.51569633  0.35392570  1
  O  O205  1  0.00043844  0.59972895  0.27398381  1
  C  C206  1  0.37937331  0.50034480  0.28958341  1
  O  O207  1  0.23594737  0.50527279  0.33028020  1
  H  H208  1  0.14055710  0.67174709  0.25011498  1
  C  C209  1  0.12650964  0.61556127  0.57844255  1
  H  H210  1  0.10707906  0.57392055  0.56397453  1
  O  O211  1  0.13105111  0.53413098  0.66557711  1
  C  C212  1  0.14830876  0.71524882  0.54810720  1
  H  H213  1  0.45015920  0.82985469  0.71153237  1
  C  C214  1  0.16357340  0.72449626  0.60671611  1
  C  C215  1  0.38606381  0.92242416  0.67124566  1
  C  C216  1  0.18366920  0.78373967  0.62071751  1
  C  C217  1  0.16349318  0.68270213  0.65109333  1
  C  C218  1  0.14410416  0.58048725  0.68056452  1
  H  H219  1  0.18340221  0.68915265  0.69349197  1
  C  C220  1  0.14436829  0.62872527  0.63645254  1
  C  C221  1  0.12845542  0.65961693  0.53726406  1
  O  O222  1  0.18383462  0.82043515  0.58478665  1
  O  O223  1  0.19441032  0.79122954  0.67795308  1
  O  O224  1  0.43079731  0.91340220  0.64809110  1
  C  C225  1  0.40868373  0.83286631  0.73305293  1
  O  O226  1  0.04556345  0.95349402  0.54497384  1
  O  O227  1  0.16561681  0.58707315  0.73474240  1
  O  O228  1  0.34776470  0.95646971  0.65876457  1
  H  H229  1  0.28830254  0.91299551  0.72589395  1
  C  C230  1  0.31899780  0.88072118  0.73990028  1
  C  C231  1  0.37212864  0.87582623  0.71638996  1
  H  H232  1  0.15029448  0.74977530  0.51669184  1
  O  O233  1  0.47381933  0.50287346  0.52153420  1
  O  O234  1  0.08926491  0.79631540  0.72245218  1
  Cu  Cu235  1  0.15413700  0.83168830  0.73541661  1
  O  O236  1  0.09511774  0.71543677  0.77218438  1
  C  C237  1  0.41515126  0.88363979  0.91664204  1
  O  O238  1  0.23863767  0.92429222  0.93699829  1
  C  C239  1  0.03333290  0.88388944  0.92077542  1
  C  C240  1  0.48179348  0.87598880  0.83830482  1
  C  C241  1  0.24684179  0.83367224  0.80113408  1
  O  O242  1  0.15816765  0.55509328  0.85350439  1
  C  C243  1  0.39350283  0.78922461  0.77273158  1
  H  H244  1  0.05983453  0.88760908  0.87938697  1
  H  H245  1  0.34748255  0.93793747  0.88953550  1
  O  O246  1  0.13467567  0.82268565  0.92114543  1
  C  C247  1  0.38806378  0.92518012  0.88059786  1
  Cu  Cu248  1  0.20248387  0.79824306  0.90952953  1
  C  C249  1  0.15868736  0.53774480  0.90612136  1
  O  O250  1  0.23698769  0.73006728  0.92786724  1
  C  C251  1  0.19287319  0.56624900  0.95155860  1
  O  O252  1  0.47192755  0.73088705  0.76618888  1
  Cu  Cu253  1  0.18073090  0.52222576  0.77932544  1
  C  C254  1  0.20927410  0.62306762  0.94038382  1
  C  C255  1  0.41234978  0.94538694  0.82846602  1
  C  C256  1  0.39502027  0.85453116  0.96914643  1
  O  O257  1  0.21183116  0.86776336  0.77860465  1
  H  H258  1  0.19571848  0.64298945  0.89801352  1
  O  O259  1  0.07629769  0.63747971  0.99111252  1
  O  O260  1  0.41088094  0.70957283  0.83559766  1
  C  C261  1  0.10074034  0.81385881  0.96575424  1
  C  C262  1  0.42481757  0.73861346  0.79400116  1
  O  O263  1  0.23286250  0.79406228  0.83505153  1
  C  C264  1  0.30423735  0.83771763  0.77974309  1
  C  C265  1  0.45918812  0.92157062  0.80467253  1
  H  H266  1  0.48640924  0.82466184  0.91573195  1
  O  O267  1  0.34846628  0.86593209  0.99123541  1
  H  H268  1  0.32590591  0.76454181  0.83102857  1
  C  C269  1  0.34062218  0.79359600  0.79716918  1
  C  C270  1  0.46425523  0.85847196  0.89447693  1
  C  C271  1  0.23761474  0.65124765  0.98610612  1
  C  C272  1  0.04739395  0.84607543  0.96676193  1
  H  H273  1  0.46889629  0.93072310  0.75746749  1
  Cu  Cu274  1  0.05698921  0.50646385  0.95203572  1
  C  C275  1  0.21301753  0.91417927  0.98220318  1
  C  C276  1  0.06743575  0.75471861  0.75701625  1
  C  C277  1  0.25227974  0.71269475  0.97694629  1
  C  C278  1  0.13882238  0.98177702  0.95725233  1
  H  H279  1  0.01527029  0.68609221  0.83864788  1
  C  C280  1  0.38038841  0.98879309  0.79713341  1
  C  C281  1  0.01098304  0.76179304  0.78482855  1
  C  C282  1  0.15931235  0.94267024  0.99989779  1
  H  H283  1  0.16115646  0.99038868  0.91581775  1
  O  O284  1  0.42494630  0.81638012  0.99334546  1
  C  C285  1  0.86911178  0.11572474  0.05018530  1
  C  C286  1  0.96532758  0.19693744  0.09845710  1
  Cu  Cu287  1  0.99157337  0.36675295  0.01308729  1
  H  H288  1  0.89970109  0.31294447  0.02965948  1
  C  C289  1  0.81739342  0.13999298  0.06079897  1
  C  C290  1  0.89617492  0.07934886  0.09591291  1
  O  O291  1  0.86676398  0.06040405  0.13836732  1
  O  O292  1  0.81876870  0.35362125  0.07838053  1
  C  C293  1  0.95136962  0.24090844  0.05943283  1
  O  O294  1  0.81035523  0.31939027  0.16952859  1
  C  C295  1  0.90851568  0.28167679  0.06373451  1
  H  H296  1  0.78801156  0.05073444  0.06956063  1
  C  C297  1  0.94330329  0.14481437  0.18649995  1
  H  H298  1  0.79331979  0.13036943  0.10098443  1
  O  O299  1  0.71213172  0.19688989  0.07755384  1
  O  O300  1  0.94471435  0.06292072  0.08974447  1
  C  C301  1  0.88545522  0.22976506  0.15400594  1
  O  O302  1  0.98733661  0.11835802  0.17878932  1
  C  C303  1  0.98803845  0.24581990  0.00837728  1
  C  C304  1  0.92883543  0.19190480  0.14624180  1
  C  C305  1  0.87508964  0.27373764  0.11281247  1
  C  C306  1  0.83218331  0.31774418  0.11958253  1
  C  C307  1  0.77522269  0.00573671  0.07667614  1
  H  H308  1  0.85628996  0.22156215  0.19141389  1
  Cu  Cu309  1  0.76626622  0.33168194  0.02557338  1
  Cu  Cu310  1  0.99455464  0.04357139  0.15637147  1
  Cu  Cu311  1  0.83845596  0.10992942  0.20095774  1
  O  O312  1  0.90727070  0.13255261  0.22565152  1
  O  O313  1  0.76276186  0.08673705  0.17039037  1
  H  H314  1  0.93851904  0.44670147  0.13968105  1
  O  O315  1  0.73587264  0.25562124  0.00560988  1
  C  C316  1  0.87203127  0.48824614  0.22838851  1
  C  C317  1  0.74332358  0.21130537  0.04021332  1
  C  C318  1  0.92301741  0.49054967  0.13165986  1
  C  C319  1  0.79728075  0.18197351  0.02248869  1
  O  O320  1  0.89124132  0.44037418  0.24349651  1
  Cu  Cu321  1  0.85140241  0.37957340  0.20859294  1
  C  C322  1  0.74878986  0.03594594  0.17876283  1
  C  C323  1  0.97074373  0.48680555  0.03580567  1
  O  O324  1  0.73473248  0.02244541  0.23033471  1
  O  O325  1  0.98610626  0.43703439  0.04984159  1
  C  C326  1  0.58953693  0.02425455  0.23441358  1
  O  O327  1  0.56298544  0.04558530  0.19630188  1
  H  H328  1  0.50753489  0.23678193  0.00998444  1
  O  O329  1  0.77206586  0.41171624  0.32131330  1
  C  C330  1  0.70324187  0.31864143  0.35835397  1
  C  C331  1  0.74700053  0.21144175  0.32526668  1
  O  O332  1  0.59988775  0.22133195  0.42302565  1
  C  C333  1  0.76274857  0.15697283  0.29816201  1
  Cu  Cu334  1  0.68622424  0.06570982  0.27475755  1
  O  O335  1  0.59640460  0.31544636  0.41316589  1
  C  C336  1  0.75074396  0.31166297  0.32230261  1
  O  O337  1  0.89093175  0.38980409  0.42549079  1
  O  O338  1  0.80164269  0.15559885  0.26352099  1
  C  C339  1  0.85458421  0.42844535  0.42529737  1
  H  H340  1  0.69003950  0.36065129  0.37217381  1
  C  C341  1  0.78437698  0.36121909  0.30517794  1
  O  O342  1  0.85636082  0.47263549  0.39321000  1
  C  C343  1  0.62010347  0.26566343  0.40658828  1
  Cu  Cu344  1  0.95688220  0.37275360  0.38734792  1
  C  C345  1  0.80609042  0.42618957  0.46353227  1
  H  H346  1  0.80861643  0.25728283  0.27172686  1
  Cu  Cu347  1  0.81484252  0.47598052  0.32862516  1
  C  C348  1  0.77770137  0.47590853  0.48080562  1
  C  C349  1  0.77454009  0.25974897  0.30479167  1
  H  H350  1  0.67321991  0.17522286  0.36761871  1
  O  O351  1  0.51874109  0.45641791  0.37668726  1
  O  O352  1  0.82951505  0.35145317  0.27965417  1
  C  C353  1  0.67600327  0.26781323  0.37386602  1
  O  O354  1  0.61435506  0.05095707  0.27847227  1
  C  C355  1  0.69759768  0.21455237  0.35917927  1
  O  O356  1  0.73438135  0.11244673  0.31646188  1
  Cu  Cu357  1  0.51699724  0.33602985  0.42502482  1
  C  C358  1  0.79104940  0.37401362  0.48842289  1
  H  H359  1  0.81392022  0.33419565  0.47857759  1
  O  O360  1  0.51127417  0.36536211  0.34969078  1
  H  H361  1  0.67813082  0.41787564  0.56911705  1
  C  C362  1  0.73095081  0.03259058  0.60613544  1
  C  C363  1  0.74566886  0.37118815  0.52715170  1
  Cu  Cu364  1  0.82226698  0.29123302  0.61729158  1
  C  C365  1  0.79392550  0.11536577  0.63616877  1
  C  C366  1  0.59688902  0.26681525  0.70115603  1
  O  O367  1  0.54858261  0.24956678  0.71424822  1
  O  O368  1  0.55904113  0.24570259  0.55463362  1
  C  C369  1  0.76863921  0.06368545  0.65004600  1
  C  C370  1  0.69488868  0.28318976  0.72886770  1
  C  C371  1  0.85370082  0.40371254  0.60425512  1
  H  H372  1  0.69646572  0.31678899  0.69521617  1
  H  H373  1  0.78950783  0.13300894  0.59089185  1
  H  H374  1  0.94105389  0.38273418  0.52535392  1
  O  O375  1  0.73622761  0.04702025  0.55598015  1
  O  O376  1  0.85072974  0.21410303  0.62039698  1
  O  O377  1  0.98255768  0.07977698  0.67317178  1
  C  C378  1  0.71317047  0.41754355  0.53834657  1
  C  C379  1  0.51892778  0.27739099  0.54108463  1
  O  O380  1  0.72092926  0.42823364  0.71991396  1
  C  C381  1  0.86106752  0.18992221  0.66961656  1
  Cu  Cu382  1  0.62487782  0.27913143  0.57503215  1
  O  O383  1  0.60555719  0.29977232  0.65872535  1
  C  C384  1  0.73495299  0.31578425  0.55656567  1
  O  O385  1  0.86470552  0.35241501  0.59435100  1
  O  O386  1  0.81410048  0.42378513  0.63408626  1
  O  O387  1  0.69232945  0.31233530  0.58951479  1
  H  H388  1  0.50919008  0.18927443  0.60712864  1
  H  H389  1  0.51042984  0.40884288  0.66275108  1
  C  C390  1  0.77024588  0.03868348  0.70568907  1
  C  C391  1  0.82717520  0.13832884  0.68072352  1
  C  C392  1  0.89453085  0.44525467  0.57899799  1
  C  C393  1  0.93535085  0.42854386  0.53998145  1
  O  O394  1  0.77167563  0.27758932  0.55644800  1
  C  C395  1  0.73062620  0.47224311  0.51665137  1
  O  O396  1  0.79530339  0.34088406  0.71075117  1
  C  C397  1  0.96775116  0.47247290  0.51390747  1
  C  C398  1  0.64535836  0.25326455  0.73785740  1
  O  O399  1  0.89412529  0.21118830  0.70660310  1
  Cu  Cu400  1  0.80150603  0.42192716  0.71521451  1
  H  H401  1  0.74752059  0.00105254  0.71801924  1
  O  O402  1  0.54007470  0.48283979  0.58634007  1
  O  O403  1  0.52184245  0.32138914  0.50900436  1
  O  O404  1  0.81507961  0.49825501  0.73060138  1
  C  C405  1  0.82977550  0.11588425  0.73874431  1
  C  C406  1  0.74198730  0.23111127  0.81081574  1
  O  O407  1  0.95088771  0.16020635  0.89235414  1
  H  H408  1  0.84940454  0.13982294  0.77180231  1
  C  C409  1  0.89719944  0.39801678  0.90052249  1
  C  C410  1  0.79995590  0.06702823  0.75042517  1
  O  O411  1  0.81707550  0.07131947  0.85238769  1
  C  C412  1  0.82625733  0.19859539  0.97232601  1
  O  O413  1  0.74702137  0.39063406  0.90034590  1
  O  O414  1  0.66084003  0.12175140  0.86732748  1
  Cu  Cu415  1  0.88629028  0.23091063  0.78750693  1
  C  C416  1  0.69238510  0.20027676  0.81276480  1
  C  C417  1  0.69925488  0.15141142  0.85720636  1
  C  C418  1  0.64605827  0.20785630  0.78045582  1
  C  C419  1  0.87590698  0.16944794  0.95864663  1
  C  C420  1  0.90538819  0.18480637  0.90528012  1
  O  O421  1  0.74738640  0.14860517  0.88206447  1
  H  H422  1  0.77604624  0.22519179  0.84142549  1
  C  C423  1  0.87284204  0.47100858  0.80780222  1
  C  C424  1  0.80051879  0.04025891  0.80930843  1
  O  O425  1  0.52116576  0.22186580  0.83576654  1
  C  C426  1  0.82816323  0.44337416  0.83618101  1
  O  O427  1  0.88190660  0.22186188  0.87307529  1
  H  H428  1  0.80950415  0.23027959  0.94235002  1
  H  H429  1  0.90219798  0.37193115  0.93990930  1
  O  O430  1  0.82930930  0.29248763  0.78939115  1
  O  O431  1  0.81517123  0.03217081  0.96713664  1
  C  C432  1  0.93760475  0.42806958  0.87252080  1
  C  C433  1  0.84083503  0.40888154  0.88447352  1
  Cu  Cu434  1  0.78208779  0.08992437  0.92278738  1
  O  O435  1  0.67289476  0.42962387  0.80386415  1
  H  H436  1  0.60972226  0.17802185  0.78809091  1
  C  C437  1  0.92690674  0.46727814  0.82675735  1
  C  C438  1  0.74151272  0.27069655  0.76288917  1
  Cu  Cu439  1  0.51202181  0.28137095  0.78538550  1
  C  C440  1  0.79265233  0.37987974  0.91492621  1
  H  H441  1  0.78375381  0.44814480  0.82163915  1
  O  O442  1  0.80429437  0.34183866  0.95468465  1
  O  O443  1  0.56615986  0.22816210  0.91739416  1
  O  O444  1  0.98282561  0.29244929  0.97961928  1
  C  C445  1  0.52287503  0.22120146  0.89275926  1
  H  H446  1  0.96300433  0.49123628  0.80921172  1
  H  H447  1  0.94001995  0.10907019  0.99280761  1
  C  C448  1  0.89850775  0.12928014  0.99894721  1
  C  C449  1  0.79263360  0.30497469  0.75297687  1
  C  C450  1  0.99331682  0.42636143  0.89678671  1
  C  C451  1  0.69404961  0.45359063  0.76241336  1
  C  C452  1  0.56890536  0.92696560  0.18814193  1
  O  O453  1  0.88781012  0.88237758  0.07679092  1
  O  O454  1  0.88969293  0.77029709  0.19954195  1
  C  C455  1  0.87551761  0.59682293  0.10808673  1
  C  C456  1  0.86221145  0.56845841  0.16073237  1
  Cu  Cu457  1  0.94666377  0.83399078  0.19143303  1
  C  C458  1  0.84742635  0.65284648  0.09444091  1
  C  C459  1  0.72562622  0.83353444  0.11051298  1
  C  C460  1  0.91241294  0.57284675  0.06661323  1
  Cu  Cu461  1  0.76470844  0.80355635  0.21395482  1
  H  H462  1  0.82824449  0.58599525  0.18912110  1
  O  O463  1  0.86100773  0.67990269  0.04575718  1
  H  H464  1  0.92254499  0.59488282  0.02410607  1
  O  O465  1  0.94850958  0.82099298  0.11409638  1
  C  C466  1  0.53605387  0.83366697  0.15349504  1
  C  C467  1  0.73738855  0.93675697  0.14683567  1
  C  C468  1  0.96540132  0.86605846  0.01876137  1
  C  C469  1  0.76645333  0.90592452  0.04792685  1
  O  O470  1  0.72392603  0.80124527  0.06890163  1
  O  O471  1  0.71023548  0.81704936  0.16207528  1
  C  C472  1  0.61103485  0.84205929  0.23292218  1
  C  C473  1  0.74270651  0.89686176  0.10254661  1
  H  H474  1  0.71821550  0.92649605  0.19080560  1
  C  C475  1  0.93314896  0.51740397  0.07837120  1
  O  O476  1  0.80940567  0.66804812  0.12446561  1
  C  C477  1  0.75335736  0.99260326  0.13029927  1
  C  C478  1  0.78249877  0.96220616  0.03296038  1
  C  C479  1  0.92865578  0.85403545  0.07106909  1
  H  H480  1  0.62021363  0.79335991  0.23238355  1
  C  C481  1  0.57436481  0.86872269  0.19451232  1
  H  H482  1  0.77164988  0.86986826  0.01525050  1
  O  O483  1  0.53996168  0.78331318  0.14999428  1
  H  H484  1  0.53606582  0.94617825  0.16073545  1
  C  C485  1  0.88786222  0.51689689  0.17357055  1
  H  H486  1  0.94226419  0.68395642  0.23646153  1
  C  C487  1  0.59941495  0.96062614  0.22931449  1
  C  C488  1  0.86289227  0.76350730  0.24727871  1
  Cu  Cu489  1  0.80978716  0.77842251  0.47718541  1
  C  C490  1  0.98723447  0.87605639  0.48648687  1
  O  O491  1  0.71311523  0.80477848  0.27736566  1
  C  C492  1  0.94512369  0.84113431  0.39357404  1
  C  C493  1  0.91462542  0.79900872  0.48968404  1
  H  H494  1  0.89304431  0.59496145  0.40080283  1
  C  C495  1  0.92323477  0.63957140  0.32014371  1
  C  C496  1  0.88948373  0.63159239  0.36846378  1
  C  C497  1  0.97067474  0.59415788  0.31427112  1
  C  C498  1  0.81208719  0.66627017  0.43091482  1
  C  C499  1  0.69606483  0.85591695  0.29542200  1
  O  O500  1  0.97606905  0.55651918  0.35555013  1
  O  O501  1  0.78208880  0.71125693  0.44129894  1
  C  C502  1  0.97982827  0.87796462  0.36241308  1
  O  O503  1  0.74219169  0.80188680  0.48646261  1
  C  C504  1  0.91734254  0.68088396  0.27712425  1
  C  C505  1  0.94968704  0.84039150  0.45500849  1
  H  H506  1  0.78973885  0.51870323  0.46250073  1
  O  O507  1  0.88046521  0.76979730  0.46189448  1
  O  O508  1  0.72375716  0.88630377  0.32514049  1
  C  C509  1  0.84213727  0.72015215  0.34318390  1
  H  H510  1  0.80761319  0.75351923  0.35203110  1
  O  O511  1  0.94690518  0.85035330  0.26979701  1
  C  C512  1  0.84701064  0.67252478  0.37951360  1
  H  H513  1  0.91708938  0.81096312  0.37102887  1
  O  O514  1  0.80863548  0.62201765  0.46241704  1
  C  C515  1  0.63843090  0.93885311  0.26883678  1
  H  H516  1  0.66797197  0.72293005  0.47927749  1
  H  H517  1  0.66526892  0.96585052  0.29764063  1
  C  C518  1  0.87523244  0.71948643  0.29078856  1
  O  O519  1  0.60140804  0.65100071  0.45815536  1
  C  C520  1  0.64334338  0.87931435  0.26554792  1
  C  C521  1  0.98620527  0.87484769  0.29811634  1
  O  O522  1  0.82140706  0.79531372  0.26049153  1
  O  O523  1  0.83661104  0.51389055  0.26122594  1
  H  H524  1  0.73241879  0.52507561  0.67310060  1
  O  O525  1  0.94564278  0.64838667  0.57364412  1
  H  H526  1  0.68310537  0.80982307  0.65132588  1
  C  C527  1  0.79685752  0.79446800  0.71447470  1
  C  C528  1  0.92548898  0.54638953  0.57155262  1
  O  O529  1  0.71027619  0.56760928  0.50973847  1
  C  C530  1  0.61388088  0.69696978  0.54980093  1
  O  O531  1  0.55425286  0.61413296  0.53452231  1
  C  C532  1  0.66148205  0.77957552  0.62082249  1
  C  C533  1  0.69433497  0.52007843  0.53181300  1
  C  C534  1  0.96645399  0.53020925  0.53335984  1
  C  C535  1  0.70090527  0.60667632  0.70657781  1
  H  H536  1  0.80510307  0.81458146  0.67157767  1
  Cu  Cu537  1  0.89996429  0.61067487  0.71539095  1
  C  C538  1  0.73116219  0.63754763  0.65860681  1
  O  O539  1  0.65242873  0.51434606  0.56308629  1
  O  O540  1  0.75625021  0.60482177  0.61895908  1
  C  C541  1  0.65424521  0.73089551  0.52468524  1
  C  C542  1  0.73003317  0.87116115  0.72350032  1
  C  C543  1  0.87340115  0.72649916  0.69934154  1
  H  H544  1  0.99248201  0.87209451  0.53619362  1
  O  O545  1  0.73713977  0.68815648  0.65947943  1
  O  O546  1  0.87499351  0.74268298  0.64461978  1
  Cu  Cu547  1  0.58158127  0.54629418  0.56336153  1
  O  O548  1  0.92148819  0.79580164  0.54510786  1
  Cu  Cu549  1  0.77473014  0.61116447  0.53837684  1
  H  H550  1  0.55970582  0.67229374  0.62460902  1
  C  C551  1  0.59294074  0.70220043  0.60774127  1
  C  C552  1  0.70772225  0.54739419  0.70729427  1
  O  O553  1  0.88345251  0.60854760  0.63207293  1
  C  C554  1  0.91879429  0.60573592  0.59192366  1
  O  O555  1  0.74765766  0.89495682  0.67758655  1
  Cu  Cu556  1  0.93248697  0.72634232  0.58499990  1
  C  C557  1  0.72349434  0.80781631  0.53802166  1
  O  O558  1  0.74290310  0.84103624  0.57666661  1
  C  C559  1  0.62082117  0.74241206  0.64152329  1
  C  C560  1  0.60961030  0.74592374  0.70433132  1
  O  O561  1  0.89923574  0.53231898  0.72821902  1
  C  C562  1  0.67780695  0.77252853  0.56204434  1
  Cu  Cu563  1  0.72053835  0.91311087  0.60222402  1
  O  O564  1  0.92459014  0.90885260  0.74412161  1
  O  O565  1  0.57129662  0.71479430  0.72527723  1
  C  C566  1  0.88803973  0.50287623  0.59029995  1
  H  H567  1  0.85422574  0.51529192  0.61797059  1
  O  O568  1  0.63699548  0.78486830  0.73319150  1
  O  O569  1  0.90566911  0.68933678  0.72069989  1
  H  H570  1  0.99503542  0.56196226  0.51711170  1
  C  C571  1  0.82931607  0.74929140  0.73592709  1
  H  H572  1  0.99311162  0.83913686  0.73172052  1
  O  O573  1  0.70188509  0.98806908  0.62188866  1
  C  C574  1  0.58730060  0.65265805  0.50853721  1
  O  O575  1  0.88068785  0.71992684  0.93805979  1
  C  C576  1  0.81519946  0.72657901  0.79167145  1
  C  C577  1  0.65280351  0.60211088  0.79817441  1
  C  C578  1  0.90143304  0.87517410  0.78125151  1
  Cu  Cu579  1  0.84861814  0.94570414  0.85859908  1
  O  O580  1  0.78913929  0.68396870  0.90385976  1
  H  H581  1  0.87284693  0.79806052  0.86579983  1
  H  H582  1  0.83663829  0.68870687  0.81078165  1
  C  C583  1  0.86114492  0.50735263  0.75528441  1
  C  C584  1  0.65854565  0.54373539  0.80190266  1
  C  C585  1  0.77691415  0.75603805  0.82546091  1
  C  C586  1  0.96665204  0.95190133  0.87464395  1
  C  C587  1  0.92274264  0.70018489  0.90563676  1
  C  C588  1  0.76304019  0.72911066  0.88581275  1
  O  O589  1  0.53762168  0.79064808  0.83322504  1
  C  C590  1  0.74769364  0.80487694  0.80830749  1
  C  C591  1  0.91004097  0.78629363  0.84187098  1
  C  C592  1  0.98274749  0.81061894  0.76817850  1
  C  C593  1  0.94060508  0.73931411  0.85629450  1
  O  O594  1  0.92165673  0.97834704  0.88200845  1
  Cu  Cu595  1  0.82686326  0.67801009  0.97337700  1
  O  O596  1  0.79558293  0.98750346  0.81802122  1
  C  C597  1  0.93103476  0.82352035  0.79786680  1
  C  C598  1  0.99031107  0.72343189  0.82736870  1
  H  H599  1  0.71565590  0.82679113  0.83393867  1
  C  C600  1  0.98439037  0.91498459  0.92544928  1
  O  O601  1  0.72540820  0.74802475  0.91315704  1
  O  O602  1  0.94104300  0.65376098  0.91184090  1
  Cu  Cu603  1  0.96391722  0.97540397  0.75370384  1
  O  O604  1  0.60544748  0.60845397  0.88938367  1
  O  O605  1  0.85530316  0.88929500  0.80319783  1
  C  C606  1  0.80130993  0.97956094  0.97595914  1
  O  O607  1  0.53975920  0.85383136  0.75972354  1
  O  O608  1  0.80479378  0.94176394  0.93587424  1
  O  O609  1  0.60606865  0.68528988  0.83451354  1
  C  C610  1  0.62091498  0.63345547  0.84656696  1
  Cu  Cu611  1  0.53687965  0.71270108  0.80209313  1
  C  C612  1  0.52040823  0.83754416  0.80827304  1
  C  C613  1  0.95116929  0.90731306  0.97671725  1
  O  O614  1  0.99487665  0.95182828  0.82921105  1
  O  O615  1  0.98523106  0.50984500  0.98905071  1
  H  H616  1  0.66902941  0.68329861  0.75688826  1
  Cu  Cu617  1  0.61721980  0.86469060  0.75054068  1
  H  H618  1  0.64474200  0.52056863  0.84330110  1
  H  H619  1  0.91586890  0.93413730  0.98410524  1
  C  C620  1  0.67326532  0.63524345  0.75288132  1
  C  C621  1  0.68541460  0.51629844  0.75546662  1
  C  C622  1  0.75741245  0.82216795  0.75077316  1
  O  O623  1  0.69031920  0.88881278  0.75543970  1
