# generated using pymatgen
data_Zn3H12C22(N3O4)2
_symmetry_space_group_name_H-M   'P 1'
_cell_length_a   17.63241109
_cell_length_b   13.71458234
_cell_length_c   22.01252407
_cell_angle_alpha   90.00000000
_cell_angle_beta   90.00000000
_cell_angle_gamma   90.00000000
_symmetry_Int_Tables_number   1
_chemical_formula_structural   Zn3H12C22(N3O4)2
_chemical_formula_sum   'Zn24 H96 C176 N48 O64'
_cell_volume   5323.09396759
_cell_formula_units_Z   8
loop_
 _symmetry_equiv_pos_site_id
 _symmetry_equiv_pos_as_xyz
  1  'x, y, z'
loop_
 _atom_site_type_symbol
 _atom_site_label
 _atom_site_symmetry_multiplicity
 _atom_site_fract_x
 _atom_site_fract_y
 _atom_site_fract_z
 _atom_site_occupancy
  H  H0  1  0.02548101  0.02550348  0.43913741  1
  C  C1  1  0.05866349  0.09696311  0.29795503  1
  H  H2  1  0.19503485  0.23727749  0.48842804  1
  O  O3  1  0.15130815  0.19940044  0.40599860  1
  O  O4  1  0.03480024  0.44091378  0.44591784  1
  C  C5  1  0.16406904  0.10934214  0.39111191  1
  C  C6  1  0.16171472  0.41318721  0.27726229  1
  Zn  Zn7  1  0.16635569  0.31230558  0.34035090  1
  N  N8  1  0.20821220  0.45681658  0.18382109  1
  H  H9  1  0.20814577  0.25869562  0.09913371  1
  H  H10  1  0.23177913  0.40604907  0.44345847  1
  N  N11  1  0.04633160  0.03246843  0.25423078  1
  C  C12  1  0.12256627  0.06489378  0.33562695  1
  C  C13  1  0.21494482  0.38579504  0.23225506  1
  O  O14  1  0.20906368  0.06317850  0.42246076  1
  O  O15  1  0.03594736  0.27152400  0.31092297  1
  H  H16  1  0.04443711  0.41253187  0.14758389  1
  N  N17  1  0.12757177  0.49950471  0.26612760  1
  C  C18  1  0.01853155  0.00987331  0.48867652  1
  H  H19  1  0.22997397  0.09703228  0.03771300  1
  C  C20  1  0.24465913  0.25129839  0.06021264  1
  C  C21  1  0.00568502  0.19166504  0.29592071  1
  C  C22  1  0.02291751  0.35136276  0.12122973  1
  C  C23  1  0.02449974  0.26595856  0.15485537  1
  H  H24  1  0.03926381  0.25375590  0.20298947  1
  C  C25  1  0.23447338  0.43227744  0.49140597  1
  H  H26  1  0.18438250  0.09911098  0.92530802  1
  N  N27  1  0.19324398  0.04775069  0.75398319  1
  C  C28  1  0.22454653  0.18526181  0.81842294  1
  C  C29  1  0.01485697  0.09262103  0.53204547  1
  C  C30  1  0.12244511  0.03013990  0.84190439  1
  C  C31  1  0.11214733  0.43737202  0.84470487  1
  O  O32  1  0.22274766  0.22554996  0.87112326  1
  O  O33  1  0.13866297  0.09620092  0.95250743  1
  Zn  Zn34  1  0.11622820  0.23441456  0.91510518  1
  C  C35  1  0.07530979  0.36412567  0.80272279  1
  C  C36  1  0.17811180  0.09105153  0.80639405  1
  O  O37  1  0.19151003  0.49828127  0.92712385  1
  O  O38  1  0.11870333  0.37877234  0.95144022  1
  N  N39  1  0.08501807  0.38325624  0.74211909  1
  C  C40  1  0.14394874  0.44074574  0.91166116  1
  C  C41  1  0.12600492  0.45815266  0.76243601  1
  H  H42  1  0.02233793  0.15308121  0.68670333  1
  C  C43  1  0.23481261  0.19521567  0.57905439  1
  H  H44  1  0.21846571  0.11716735  0.57379852  1
  C  C45  1  0.09274876  0.03132818  0.90567919  1
  C  C46  1  0.01945321  0.27697899  0.80875502  1
  O  O47  1  0.01247833  0.24709564  0.86324591  1
  C  C48  1  0.24309496  0.35979447  0.54192219  1
  C  C49  1  0.21981662  0.26152739  0.53166249  1
  C  C50  1  0.00330160  0.26508873  0.55345689  1
  Zn  Zn51  1  0.00625359  0.37358512  0.66804876  1
  H  H52  1  0.00036048  0.34216467  0.54476007  1
  C  C53  1  0.01620762  0.16593290  0.63549104  1
  N  N54  1  0.01073668  0.25680937  0.61382448  1
  C  C55  1  0.02543756  0.08705560  0.59696978  1
  C  C56  1  0.00128222  0.18914709  0.50926579  1
  H  H57  1  0.04077314  0.01886057  0.61914948  1
  H  H58  1  0.23760127  0.00340843  0.99756489  1
  N  N59  1  0.14372646  0.98045671  0.31131593  1
  C  C60  1  0.15773973  0.52187910  0.21146149  1
  H  H61  1  0.10458047  0.89689378  0.23096917  1
  C  C62  1  0.01935981  0.83643701  0.45232723  1
  C  C63  1  0.02352829  0.85258148  0.38824381  1
  C  C64  1  0.21064924  0.77504191  0.44561837  1
  N  N65  1  0.03186834  0.67873097  0.37092938  1
  C  C66  1  0.01379539  0.73748189  0.47297830  1
  H  H67  1  0.03015044  0.58147314  0.44185068  1
  C  C68  1  0.09662147  0.96018551  0.26280271  1
  H  H69  1  0.13432172  0.58616542  0.18529074  1
  H  H70  1  0.02581444  0.92698151  0.36885575  1
  C  C71  1  0.02678679  0.66241071  0.43125478  1
  N  N72  1  0.23400290  0.77136269  0.38852800  1
  Zn  Zn73  1  0.04378549  0.57411773  0.31158237  1
  O  O74  1  0.24640739  0.83710045  0.13874717  1
  H  H75  1  0.19258227  0.85283597  0.45104798  1
  C  C76  1  0.03059202  0.77102226  0.35070769  1
  O  O77  1  0.21901666  0.79206733  0.22962299  1
  C  C78  1  0.23771450  0.60733021  0.46527417  1
  Zn  Zn79  1  0.23434121  0.89328258  0.33422693  1
  H  H80  1  0.03339951  0.77760052  0.30037975  1
  H  H81  1  0.00084751  0.52911662  0.05693827  1
  C  C82  1  0.20924214  0.69717510  0.48697999  1
  N  N83  1  0.10651237  0.95558732  0.80563035  1
  O  O84  1  0.01043958  0.74822364  0.71740947  1
  H  H85  1  0.00233524  0.72104993  0.52092809  1
  H  H86  1  0.16691238  0.86791430  0.95397088  1
  H  H87  1  0.14482589  0.91714952  0.71292892  1
  C  C88  1  0.15141783  0.96616658  0.75432467  1
  H  H89  1  0.01419859  0.89099717  0.55051718  1
  C  C90  1  0.21562234  0.84351541  0.92699980  1
  O  O91  1  0.04160517  0.99255895  0.93039309  1
  C  C92  1  0.21120716  0.75491452  0.89541907  1
  H  H93  1  0.18940335  0.70199015  0.53192219  1
  H  H94  1  0.16094296  0.70532582  0.89822069  1
  C  C95  1  0.23387803  0.52654701  0.51044003  1
  Zn  Zn96  1  0.01572018  0.85864095  0.82317421  1
  H  H97  1  0.00142060  0.63247146  0.79762236  1
  O  O98  1  0.24468151  0.70557997  0.72249004  1
  H  H99  1  0.22355470  0.53755233  0.55881546  1
  C  C100  1  0.01600196  0.91281141  0.50319671  1
  N  N101  1  0.14570053  0.50965795  0.81007896  1
  C  C102  1  0.36179897  0.02955329  0.28825207  1
  Zn  Zn103  1  0.26388958  0.44874793  0.10347821  1
  C  C104  1  0.25626459  0.16622243  0.02604143  1
  C  C105  1  0.37119567  0.03498013  0.12348463  1
  N  N106  1  0.38542798  0.06356627  0.23553063  1
  N  N107  1  0.28113053  0.33436822  0.04812858  1
  O  O108  1  0.42543760  0.08312535  0.11079056  1
  O  O109  1  0.49368266  0.47857894  0.42258182  1
  C  C110  1  0.32966027  0.33677204  0.00153399  1
  O  O111  1  0.43283880  0.23239544  0.34032448  1
  H  H112  1  0.39370249  0.06260445  0.32734581  1
  Zn  Zn113  1  0.47551821  0.17182934  0.22264801  1
  O  O114  1  0.30640155  0.28148375  0.18571855  1
  C  C115  1  0.35326071  0.01109909  0.19325774  1
  H  H116  1  0.46807994  0.03996182  0.45900443  1
  C  C117  1  0.48570539  0.19937222  0.36791581  1
  O  O118  1  0.48924901  0.20613704  0.42422192  1
  H  H119  1  0.48875263  0.37744457  0.23350712  1
  O  O120  1  0.26035323  0.21944749  0.27657570  1
  C  C121  1  0.26657050  0.30284914  0.22765424  1
  H  H122  1  0.29771275  0.17703194  0.25682858  1
  H  H123  1  0.38332797  0.26959381  0.92585185  1
  H  H124  1  0.41526295  0.44398033  0.80500133  1
  O  O125  1  0.48456495  0.47169104  0.59524863  1
  C  C126  1  0.27418535  0.30963133  0.64739482  1
  Zn  Zn127  1  0.26962139  0.09391872  0.68847998  1
  H  H128  1  0.35932776  0.06801129  0.90240884  1
  O  O129  1  0.47051132  0.26269774  0.81271519  1
  N  N130  1  0.43157683  0.46270644  0.71303555  1
  O  O131  1  0.25857636  0.22616701  0.77746851  1
  C  C132  1  0.31823268  0.07321146  0.94110709  1
  H  H133  1  0.29764847  0.32167160  0.69382432  1
  H  H134  1  0.27679275  0.45983715  0.61393330  1
  C  C135  1  0.34353691  0.25672291  0.96259554  1
  H  H136  1  0.42115151  0.13790604  0.52453848  1
  C  C137  1  0.45946173  0.22680630  0.59880790  1
  C  C138  1  0.40114231  0.48892305  0.76551783  1
  C  C139  1  0.46048417  0.14317399  0.56363344  1
  H  H140  1  0.42252157  0.29446602  0.58996380  1
  C  C141  1  0.26630342  0.38185097  0.60364362  1
  C  C142  1  0.30761370  0.16558889  0.97509641  1
  N  N143  1  0.26278091  0.21848384  0.63400560  1
  H  H144  1  0.35475627  0.40916475  0.99457684  1
  H  H145  1  0.44269197  0.94234465  0.35926301  1
  O  O146  1  0.33386991  0.98931337  0.08361439  1
  C  C147  1  0.38489163  0.54511715  0.19234861  1
  O  O148  1  0.34888991  0.55202383  0.01491293  1
  N  N149  1  0.41735644  0.61764199  0.22462514  1
  C  C150  1  0.46370252  0.76186189  0.16538196  1
  Zn  Zn151  1  0.34755665  0.83022709  0.08170976  1
  O  O152  1  0.45922962  0.80308591  0.11333680  1
  C  C153  1  0.35941569  0.61936409  0.04809501  1
  O  O154  1  0.35323100  0.70904333  0.03236620  1
  C  C155  1  0.30151310  0.94009897  0.22116074  1
  C  C156  1  0.39140685  0.60379141  0.11640844  1
  C  C157  1  0.41995430  0.66199107  0.16911342  1
  N  N158  1  0.36440717  0.51514782  0.13860618  1
  N  N159  1  0.30473282  0.95938108  0.27980098  1
  C  C160  1  0.48431200  0.79373272  0.35395149  1
  H  H161  1  0.29237312  0.69461993  0.32361157  1
  C  C162  1  0.47429303  0.88199182  0.38152207  1
  C  C163  1  0.49014137  0.97053854  0.47954144  1
  O  O164  1  0.49533538  0.79940146  0.20671511  1
  H  H165  1  0.28686228  0.53067487  0.38291327  1
  C  C166  1  0.26481933  0.60144178  0.40518359  1
  C  C167  1  0.26507217  0.68829329  0.36982523  1
  C  C168  1  0.25280078  0.84955325  0.19624031  1
  O  O169  1  0.39610845  0.56139435  0.56080251  1
  C  C170  1  0.28661772  0.65324970  0.67855691  1
  C  C171  1  0.33249033  0.76976379  0.86400241  1
  C  C172  1  0.39606238  0.52273448  0.67168783  1
  N  N173  1  0.44339557  0.88240786  0.73183199  1
  H  H174  1  0.37396012  0.72346672  0.83811232  1
  Zn  Zn175  1  0.37574685  0.71661369  0.56841685  1
  N  N176  1  0.27159650  0.71605573  0.86697190  1
  C  C177  1  0.43166901  0.86163812  0.67055742  1
  C  C178  1  0.36824870  0.91612984  0.64642801  1
  C  C179  1  0.32099203  0.91716407  0.58670768  1
  C  C180  1  0.27518401  0.99622741  0.95838955  1
  C  C181  1  0.42883279  0.51705016  0.60355194  1
  O  O182  1  0.33959728  0.85465834  0.54286741  1
  C  C183  1  0.33951564  0.58134953  0.70065914  1
  C  C184  1  0.34444359  0.86476700  0.88861746  1
  C  C185  1  0.28227262  0.90324590  0.92555123  1
  H  H186  1  0.39765670  0.90632024  0.88784342  1
  C  C187  1  0.49449436  0.79331140  0.64713369  1
  O  O188  1  0.27794084  0.67462366  0.62551298  1
  N  N189  1  0.35081136  0.98037680  0.69020585  1
  N  N190  1  0.34430734  0.56075306  0.76277946  1
  H  H191  1  0.26882941  0.68176042  0.75984495  1
  O  O192  1  0.25998990  0.95860398  0.58248345  1
  C  C193  1  0.39171526  0.95687814  0.74009830  1
  O  O194  1  0.49114257  0.74889576  0.59604896  1
  Zn  Zn195  1  0.25283344  0.57917179  0.82986601  1
  O  O196  1  0.49780005  0.99847570  0.86724220  1
  H  H197  1  0.39080045  0.99898143  0.78323060  1
  C  C198  1  0.59840235  0.03942413  0.26436428  1
  C  C199  1  0.52744085  0.44822350  0.08309541  1
  O  O200  1  0.59580822  0.39439798  0.46692979  1
  C  C201  1  0.65722253  0.37844307  0.33046181  1
  C  C202  1  0.60287030  0.06044920  0.36059179  1
  C  C203  1  0.59403494  0.43978082  0.35212300  1
  Zn  Zn204  1  0.60240168  0.24160432  0.46314088  1
  C  C205  1  0.72308175  0.14456946  0.17400690  1
  O  O206  1  0.62620315  0.09778296  0.47383166  1
  H  H207  1  0.55755962  0.41122692  0.49406558  1
  C  C208  1  0.54865996  0.12905556  0.33435446  1
  C  C209  1  0.55322152  0.44448595  0.41105992  1
  C  C210  1  0.51940009  0.27110632  0.10549455  1
  C  C211  1  0.71437050  0.06531649  0.13399968  1
  N  N212  1  0.67697655  0.40175693  0.27243957  1
  O  O213  1  0.70678628  0.27223583  0.40642506  1
  N  N214  1  0.54894241  0.11544724  0.27508334  1
  C  C215  1  0.62755421  0.46754180  0.25732099  1
  C  C216  1  0.70269877  0.28511379  0.35060457  1
  C  C217  1  0.63287963  0.03906039  0.42823077  1
  H  H218  1  0.53169769  0.32926823  0.01496460  1
  C  C219  1  0.52434123  0.34797167  0.06383135  1
  N  N220  1  0.50656375  0.28403949  0.16361288  1
  C  C221  1  0.50481299  0.37556597  0.18489286  1
  C  C222  1  0.52145457  0.45626256  0.14919405  1
  H  H223  1  0.70425517  0.15051591  0.22327266  1
  O  O224  1  0.72976382  0.22158818  0.31587237  1
  C  C225  1  0.72766369  0.07820862  0.06973677  1
  O  O226  1  0.74239443  0.48046161  0.13821643  1
  H  H227  1  0.51734492  0.19073948  0.09679944  1
  H  H228  1  0.61066117  0.00102123  0.22184255  1
  N  N229  1  0.63083248  0.00581042  0.31577217  1
  N  N230  1  0.57144565  0.48953484  0.30202607  1
  H  H231  1  0.66613218  0.46202511  0.64767729  1
  N  N232  1  0.67906238  0.47794046  0.81273658  1
  C  C233  1  0.56370420  0.02283941  0.87992547  1
  C  C234  1  0.68580312  0.08724923  0.80176162  1
  H  H235  1  0.50645999  0.43569075  0.96392320  1
  C  C236  1  0.58641218  0.36183407  0.82157487  1
  Zn  Zn237  1  0.62872725  0.21109150  0.93170772  1
  O  O238  1  0.67051790  0.35142544  0.95532218  1
  N  N239  1  0.58377141  0.39655303  0.76682565  1
  O  O240  1  0.58244151  0.06089443  0.92785087  1
  H  H241  1  0.57959079  0.17628987  0.70787446  1
  C  C242  1  0.54912359  0.16281131  0.66148463  1
  N  N243  1  0.70649244  0.05644940  0.74684318  1
  C  C244  1  0.65176543  0.41064030  0.85044534  1
  C  C245  1  0.68914011  0.41374502  0.91485641  1
  C  C246  1  0.51929640  0.29201472  0.84697042  1
  C  C247  1  0.62758488  0.02105100  0.82433153  1
  O  O248  1  0.52106676  0.26562193  0.90142258  1
  C  C249  1  0.63792869  0.46952281  0.76078132  1
  C  C250  1  0.55416380  0.07590726  0.62593786  1
  H  H251  1  0.71044553  0.30575299  0.71239164  1
  C  C252  1  0.70683730  0.40681634  0.63183325  1
  C  C253  1  0.72756007  0.32586716  0.66581892  1
  O  O254  1  0.73457214  0.18147729  0.88750963  1
  C  C255  1  0.73584329  0.17101076  0.83131599  1
  Zn  Zn256  1  0.51677159  0.36134957  0.69989662  1
  O  O257  1  0.73969359  0.47152961  0.92689819  1
  C  C258  1  0.73899328  0.42322772  0.57359171  1
  N  N259  1  0.50711850  0.23947357  0.64403034  1
  C  C260  1  0.51087561  0.06165811  0.57424202  1
  H  H261  1  0.51234507  0.49394622  0.85541961  1
  H  H262  1  0.58547617  0.01275917  0.64061211  1
  C  C263  1  0.50027873  0.87958396  0.44397012  1
  N  N264  1  0.50666661  0.70899087  0.35916929  1
  N  N265  1  0.72763691  0.76931819  0.37056526  1
  O  O266  1  0.72343020  0.77664568  0.12314844  1
  Zn  Zn267  1  0.50316736  0.61289048  0.29489894  1
  H  H268  1  0.68661203  0.80372256  0.01029090  1
  C  C269  1  0.74163404  0.58969091  0.43781050  1
  H  H270  1  0.70544563  0.92282004  0.05445321  1
  H  H271  1  0.70360621  0.99333922  0.14883328  1
  Zn  Zn272  1  0.70771773  0.89560936  0.32206165  1
  O  O273  1  0.68044563  0.77445878  0.21614843  1
  H  H274  1  0.55403140  0.63719004  0.42902630  1
  C  C275  1  0.71623483  0.99060516  0.02760535  1
  H  H276  1  0.52446084  0.52779748  0.17195073  1
  C  C277  1  0.52570950  0.78647471  0.46230261  1
  C  C278  1  0.71836854  0.76255770  0.43067897  1
  C  C279  1  0.53170656  0.71233701  0.41919949  1
  C  C280  1  0.53275412  0.53071484  0.04137267  1
  H  H281  1  0.70290643  0.83869974  0.44990870  1
  O  O282  1  0.66086900  0.95895482  0.43389612  1
  H  H283  1  0.62548312  0.50699721  0.21219560  1
  H  H284  1  0.54222921  0.60276150  0.05967375  1
  C  C285  1  0.72228867  0.67827492  0.46676378  1
  C  C286  1  0.72367001  0.80863137  0.17820753  1
  C  C287  1  0.74544546  0.68443423  0.34361864  1
  H  H288  1  0.70850140  0.58042142  0.55500340  1
  O  O289  1  0.73440669  0.69446106  0.72867596  1
  Zn  Zn290  1  0.54152915  0.85623494  0.79012421  1
  H  H291  1  0.55403385  0.71220041  0.99879637  1
  N  N292  1  0.61571826  0.95386472  0.78394182  1
  C  C293  1  0.52505893  0.58833608  0.93579827  1
  C  C294  1  0.66218895  0.97697057  0.73398380  1
  H  H295  1  0.66480341  0.93607298  0.69086208  1
  C  C296  1  0.51501384  0.56939158  0.87204249  1
  C  C297  1  0.71327984  0.80106744  0.96432797  1
  C  C298  1  0.51273615  0.64758755  0.83267611  1
  H  H299  1  0.71109617  0.64002754  0.95073951  1
  C  C300  1  0.54745950  0.75971876  0.90625792  1
  C  C301  1  0.51501101  0.96744265  0.53771220  1
  N  N302  1  0.52964073  0.74136155  0.84816444  1
  O  O303  1  0.55014531  0.77436566  0.67748244  1
  H  H304  1  0.64834006  0.52071916  0.72197208  1
  H  H305  1  0.54735848  0.90467429  0.55634662  1
  C  C306  1  0.72776042  0.71198094  0.93519869  1
  C  C307  1  0.54326975  0.68883727  0.95137759  1
  H  H308  1  0.56757939  0.83654464  0.91607225  1
  C  C309  1  0.52097612  0.50910149  0.98079077  1
  H  H310  1  0.71466729  0.68180304  0.51763844  1
  H  H311  1  0.50005227  0.63917910  0.78373895  1
  C  C312  1  0.73584572  0.89129865  0.93769434  1
  C  C313  1  0.73558318  0.98782090  0.96873814  1
  C  C314  1  0.72714801  0.50958147  0.53510855  1
  H  H315  1  0.54916925  0.77636175  0.50760441  1
  N  N316  1  0.99276672  0.18641718  0.13252088  1
  O  O317  1  0.93880127  0.18567877  0.28766401  1
  C  C318  1  0.95982799  0.19172781  0.07901711  1
  H  H319  1  0.86869564  0.04269249  0.29084180  1
  O  O320  1  0.91103072  0.40381480  0.41509979  1
  H  H321  1  0.93060471  0.40319156  0.31002916  1
  N  N322  1  0.76012053  0.22478053  0.16119307  1
  Zn  Zn323  1  0.98244323  0.06028391  0.18056873  1
  C  C324  1  0.91554569  0.44664412  0.27026392  1
  C  C325  1  0.75746959  0.17359131  0.05672878  1
  H  H326  1  0.76637623  0.43352119  0.45685567  1
  N  N327  1  0.85813588  0.43324477  0.22849830  1
  C  C328  1  0.95450284  0.27774363  0.04392964  1
  H  H329  1  0.93309094  0.12197606  0.06660857  1
  H  H330  1  0.80474278  0.30869807  0.09878434  1
  C  C331  1  0.97934036  0.46212045  0.03377626  1
  C  C332  1  0.77659158  0.23758930  0.10313256  1
  Zn  Zn333  1  0.76991699  0.33275453  0.22868764  1
  H  H334  1  0.76849273  0.19416577  0.00925107  1
  H  H335  1  0.99784803  0.21062547  0.46320542  1
  C  C336  1  0.97257317  0.42115914  0.43050276  1
  C  C337  1  0.98453486  0.36798437  0.06394268  1
  C  C338  1  0.78902099  0.34410470  0.55698432  1
  H  H339  1  0.92641146  0.27580206  0.99977749  1
  H  H340  1  0.89316496  0.04809725  0.80226093  1
  H  H341  1  0.89929358  0.41839047  0.79134508  1
  H  H342  1  0.75668587  0.05168585  0.94386189  1
  N  N343  1  0.91877423  0.45920443  0.69794363  1
  H  H344  1  0.82833100  0.36029306  0.51503140  1
  O  O345  1  0.96988173  0.47504902  0.58526990  1
  O  O346  1  0.77442253  0.22324205  0.79825571  1
  C  C347  1  0.80175305  0.26085555  0.59206778  1
  C  C348  1  0.88478916  0.46854587  0.75210476  1
  H  H349  1  0.83629442  0.19455581  0.57658254  1
  Zn  Zn350  1  0.78167029  0.12695840  0.69135943  1
  N  N351  1  0.86967577  0.03137915  0.70429850  1
  N  N352  1  0.76740896  0.24758559  0.64618764  1
  O  O353  1  0.99105918  0.23899417  0.76605727  1
  H  H354  1  0.98882290  0.48480138  0.86427593  1
  C  C355  1  0.95881688  0.46845049  0.97403071  1
  H  H356  1  0.94478494  0.40509103  0.94558502  1
  C  C357  1  0.90330321  0.00938306  0.75831878  1
  O  O358  1  0.81355156  0.02084473  0.58214248  1
  C  C359  1  0.95063331  0.67432402  0.18486782  1
  N  N360  1  0.78107929  0.93356530  0.25189705  1
  C  C361  1  0.77886383  0.89130955  0.19713856  1
  C  C362  1  0.89118402  0.91848975  0.10317334  1
  O  O363  1  0.87288280  0.85865108  0.06353985  1
  C  C364  1  0.84675798  0.98965851  0.25453809  1
  Zn  Zn365  1  0.82893002  0.71683863  0.09120163  1
  C  C366  1  0.86774775  0.50706227  0.18960633  1
  O  O367  1  0.93852949  0.69684245  0.12837432  1
  O  O368  1  0.82707283  0.55877601  0.08826787  1
  C  C369  1  0.80793111  0.51246392  0.13615425  1
  C  C370  1  0.84741836  0.92529876  0.16538877  1
  C  C371  1  0.92885383  0.57125746  0.20954391  1
  N  N372  1  0.95772842  0.52824789  0.25871760  1
  N  N373  1  0.88489490  0.98653962  0.20216644  1
  O  O374  1  0.98938225  0.72896359  0.21554319  1
  H  H375  1  0.96948138  0.68828209  0.01624753  1
  H  H376  1  0.76241713  0.52319089  0.35230729  1
  C  C377  1  0.75431490  0.59637649  0.37305340  1
  H  H378  1  0.75017676  0.69877329  0.29459962  1
  O  O379  1  0.95002615  0.96812666  0.09753508  1
  C  C380  1  0.75171050  0.50553479  0.47707765  1
  C  C381  1  0.88944963  0.53088243  0.66381107  1
  C  C382  1  0.85539776  0.95468783  0.59800495  1
  C  C383  1  0.93533812  0.89329845  0.69755626  1
  C  C384  1  0.83150215  0.58324981  0.69952229  1
  O  O385  1  0.76879675  0.71425934  0.63720021  1
  O  O386  1  0.87330128  0.88605756  0.56212341  1
  N  N387  1  0.83152416  0.54360698  0.75636656  1
  Zn  Zn388  1  0.86871379  0.73191007  0.58521921  1
  C  C389  1  0.97744849  0.55545793  0.88196167  1
  N  N390  1  0.75513802  0.70767971  0.87922324  1
  N  N391  1  0.94502474  0.92588340  0.75494081  1
  C  C392  1  0.88890967  0.96297026  0.66411800  1
  O  O393  1  0.89332619  0.58969493  0.55709401  1
  O  O394  1  0.97837583  0.77020173  0.62433698  1
  Zn  Zn395  1  0.75899637  0.59126895  0.83118836  1
  C  C396  1  0.98985118  0.64048627  0.84641467  1
  H  H397  1  0.79485996  0.78189089  0.80573628  1
  C  C398  1  0.92019044  0.53296880  0.59718824  1
  C  C399  1  0.77797909  0.66762645  0.68793107  1
  C  C400  1  0.97558608  0.79463752  0.67925056  1
  C  C401  1  0.76962416  0.88479268  0.87991336  1
  C  C402  1  0.96257593  0.56557628  0.94366951  1
  N  N403  1  0.99669006  0.73668775  0.86502190  1
  C  C404  1  0.96848893  0.66487744  0.96806452  1
  C  C405  1  0.98393723  0.72590278  0.92101879  1
  H  H406  1  0.79139226  0.94964612  0.85406567  1
  C  C407  1  0.77819399  0.79166465  0.85383273  1
