# generated using pymatgen
data_CuH6C13O4
_symmetry_space_group_name_H-M   'P 1'
_cell_length_a   12.42791914
_cell_length_b   17.53398710
_cell_length_c   26.81301206
_cell_angle_alpha   90.00000000
_cell_angle_beta   90.00000000
_cell_angle_gamma   90.00000000
_symmetry_Int_Tables_number   1
_chemical_formula_structural   CuH6C13O4
_chemical_formula_sum   'Cu18 H108 C234 O72'
_cell_volume   5842.84957116
_cell_formula_units_Z   18
loop_
 _symmetry_equiv_pos_site_id
 _symmetry_equiv_pos_as_xyz
  1  'x, y, z'
loop_
 _atom_site_type_symbol
 _atom_site_label
 _atom_site_symmetry_multiplicity
 _atom_site_fract_x
 _atom_site_fract_y
 _atom_site_fract_z
 _atom_site_occupancy
  C  C0  1  0.45542039  0.00168208  0.17691278  1
  C  C1  1  0.07970138  0.12717554  0.09766437  1
  Cu  Cu2  1  0.34119107  0.09714573  0.10639185  1
  O  O3  1  0.33146663  0.18239636  0.22391943  1
  C  C4  1  0.42924386  0.44459472  0.23034293  1
  C  C5  1  0.48763521  0.36893321  0.03690928  1
  C  C6  1  0.07861505  0.24042580  0.03706908  1
  O  O7  1  0.42248915  0.04141609  0.21258559  1
  H  H8  1  0.31142892  0.42009774  0.05539017  1
  C  C9  1  0.49315087  0.44919305  0.04235020  1
  C  C10  1  0.35367053  0.13273439  0.00275268  1
  C  C11  1  0.22990844  0.42608640  0.04175838  1
  O  O12  1  0.36690604  0.18795650  0.14306077  1
  C  C13  1  0.13090382  0.05574475  0.09179092  1
  C  C14  1  0.04707393  0.16760392  0.04970729  1
  C  C15  1  0.14431603  0.41269156  0.07638623  1
  H  H16  1  0.29489979  0.29536012  0.09995099  1
  C  C17  1  0.19160708  0.30442823  0.21852276  1
  C  C18  1  0.16701088  0.37648089  0.12661834  1
  O  O19  1  0.36545857  0.08269815  0.03946794  1
  C  C20  1  0.12377788  0.36663882  0.21372295  1
  C  C21  1  0.10567766  0.40135398  0.16791747  1
  C  C22  1  0.32020373  0.21098632  0.18170943  1
  C  C23  1  0.24748519  0.27748972  0.17653240  1
  C  C24  1  0.24206672  0.31468017  0.13074351  1
  H  H25  1  0.12357441  0.27810127  0.06317093  1
  C  C26  1  0.02421849  0.47715989  0.01298606  1
  C  C27  1  0.47185833  0.48269949  0.18319478  1
  C  C28  1  0.06237698  0.11297407  0.18461606  1
  O  O29  1  0.34644912  0.19927792  0.00957094  1
  C  C30  1  0.09642798  0.03719287  0.17965502  1
  C  C31  1  0.05663391  0.16308758  0.14424405  1
  O  O32  1  0.43132219  0.01732281  0.13222976  1
  Cu  Cu33  1  0.46707694  0.13932111  0.24692537  1
  H  H34  1  0.16386584  0.03337466  0.05617368  1
  C  C35  1  0.48555913  0.32370331  0.08065146  1
  C  C36  1  0.13147701  0.00998165  0.13382393  1
  C  C37  1  0.02997941  0.14035142  0.23328471  1
  H  H38  1  0.05189579  0.45022776  0.16579928  1
  C  C39  1  0.47899842  0.43919133  0.13558694  1
  C  C40  1  0.03668802  0.43220217  0.05997012  1
  H  H41  1  0.48023619  0.26200872  0.07892102  1
  C  C42  1  0.47148603  0.36066278  0.12707297  1
  H  H43  1  0.45861213  0.32452305  0.16063127  1
  O  O44  1  0.00063580  0.20926760  0.24238519  1
  H  H45  1  0.02872922  0.22309673  0.15047864  1
  C  C46  1  0.45123769  0.37083096  0.24514170  1
  C  C47  1  0.44980409  0.49573921  0.00095487  1
  H  H48  1  0.47795448  0.33963186  0.00079666  1
  O  O49  1  0.02377285  0.10454821  0.36702570  1
  O  O50  1  0.22524023  0.07071429  0.36918342  1
  C  C51  1  0.40846764  0.34507973  0.29139490  1
  C  C52  1  0.31861791  0.04139700  0.36503871  1
  Cu  Cu53  1  0.41590360  0.17435057  0.40333551  1
  C  C54  1  0.32350553  0.46273803  0.30306472  1
  O  O55  1  0.39994307  0.08400087  0.36243382  1
  C  C56  1  0.05147762  0.08209559  0.46958385  1
  H  H57  1  0.30511735  0.36803876  0.35487922  1
  C  C58  1  0.43241526  0.26683049  0.30812571  1
  O  O59  1  0.45137920  0.12466812  0.45988445  1
  C  C60  1  0.01992177  0.15314985  0.44808653  1
  Cu  Cu61  1  0.12546660  0.08295969  0.31964965  1
  O  O62  1  0.37977606  0.23998562  0.34463634  1
  C  C63  1  0.33902797  0.38920474  0.31999220  1
  H  H64  1  0.07458932  0.03010954  0.44865360  1
  O  O65  1  0.03173210  0.09152989  0.26820121  1
  O  O66  1  0.29004918  0.09042616  0.48511288  1
  C  C67  1  0.38181426  0.10657742  0.49427706  1
  C  C68  1  0.36435148  0.49351632  0.25845194  1
  H  H69  1  0.47818155  0.46896615  0.45472776  1
  O  O70  1  0.24381410  0.47894492  0.38892956  1
  C  C71  1  0.01608755  0.16292640  0.39474739  1
  C  C72  1  0.04892130  0.38968696  0.25656403  1
  O  O73  1  0.04765475  0.34131562  0.29544139  1
  H  H74  1  0.19741409  0.27694490  0.25492980  1
  O  O75  1  0.22174657  0.33661513  0.65220189  1
  C  C76  1  0.32682951  0.13020960  0.72430076  1
  C  C77  1  0.35289536  0.21008998  0.71998812  1
  C  C78  1  0.38206525  0.09600742  0.63324070  1
  C  C79  1  0.31894420  0.07948356  0.68026898  1
  C  C80  1  0.48473271  0.11931196  0.64783092  1
  H  H81  1  0.26824913  0.06765740  0.57452507  1
  H  H82  1  0.35827919  0.22988987  0.68105811  1
  C  C83  1  0.13245662  0.36300705  0.72715122  1
  H  H84  1  0.00141783  0.11439049  0.59550187  1
  C  C85  1  0.42157619  0.11286148  0.54714099  1
  C  C86  1  0.20229046  0.48913343  0.57387581  1
  H  H87  1  0.17899189  0.23522688  0.73859728  1
  C  C88  1  0.34796951  0.08741750  0.58307911  1
  H  H89  1  0.03421192  0.21420521  0.63267360  1
  O  O90  1  0.17364941  0.46507606  0.66379906  1
  C  C91  1  0.17827915  0.37803709  0.67863641  1
  C  C92  1  0.25219993  0.01352366  0.68479885  1
  H  H93  1  0.08378622  0.47799635  0.73624885  1
  C  C94  1  0.04709834  0.07584668  0.52057684  1
  C  C95  1  0.18610668  0.48219159  0.61825965  1
  C  C96  1  0.01785134  0.13007384  0.55599476  1
  C  C97  1  0.21818292  0.49637398  0.52139129  1
  C  C98  1  0.28384386  0.10499936  0.77240322  1
  H  H99  1  0.28672449  0.47103150  0.97067636  1
  H  H100  1  0.36047174  0.27133023  0.84331386  1
  C  C101  1  0.31644544  0.14557876  0.91193214  1
  C  C102  1  0.34523147  0.09778660  0.95167604  1
  H  H103  1  0.30654104  0.20988178  0.91800289  1
  C  C104  1  0.34689158  0.26126175  0.76056215  1
  H  H105  1  0.16392645  0.03267434  0.80779389  1
  C  C106  1  0.34792080  0.03416383  0.85744016  1
  C  C107  1  0.33920246  0.23258224  0.80990904  1
  C  C108  1  0.31590510  0.15523818  0.81557731  1
  C  C109  1  0.37779633  0.02039438  0.94751742  1
  C  C110  1  0.32239074  0.11309451  0.86357470  1
  C  C111  1  0.45308851  0.47103138  0.95028074  1
  H  H112  1  0.36054433  0.32072973  0.75324599  1
  H  H113  1  0.07111903  0.32162237  0.97452190  1
  C  C114  1  0.01004388  0.49149307  0.82442057  1
  C  C115  1  0.06036144  0.35089938  0.82954326  1
  C  C116  1  0.05860816  0.42416073  0.80413637  1
  H  H117  1  0.03480555  0.34269817  0.86887178  1
  O  O118  1  0.47084234  0.43866131  0.85027975  1
  C  C119  1  0.21260023  0.04008806  0.77464770  1
  C  C120  1  0.09655282  0.29565294  0.79846721  1
  H  H121  1  0.35225560  0.00809650  0.82075253  1
  C  C122  1  0.05204159  0.26599124  0.98799041  1
  C  C123  1  0.40520341  0.49064573  0.86200792  1
  C  C124  1  0.00232988  0.21751578  0.95235437  1
  C  C125  1  0.11049805  0.48425417  0.97853416  1
  C  C126  1  0.21465054  0.45375137  0.99164029  1
  C  C127  1  0.09304127  0.42493474  0.75486686  1
  C  C128  1  0.13841249  0.28820576  0.75195909  1
  H  H129  1  0.09252137  0.99415606  0.20966084  1
  C  C130  1  0.38141005  0.55898027  0.01301398  1
  H  H131  1  0.40790174  0.81171607  0.09830691  1
  H  H132  1  0.30689332  0.78847897  0.01744281  1
  Cu  Cu133  1  0.06128574  0.80439151  0.15282212  1
  O  O134  1  0.22125302  0.90636018  0.09222350  1
  H  H135  1  0.37388996  0.57866549  0.05212948  1
  C  C136  1  0.17239961  0.92920349  0.12691001  1
  O  O137  1  0.14811860  0.88386630  0.16470198  1
  C  C138  1  0.39058002  0.77399556  0.02077769  1
  C  C139  1  0.44751216  0.78498649  0.06625122  1
  O  O140  1  0.22007385  0.66595138  0.03351367  1
  O  O141  1  0.03220436  0.74466773  0.09927798  1
  H  H142  1  0.48166704  0.58912667  0.22169694  1
  H  H143  1  0.34589328  0.55123793  0.24465389  1
  C  C144  1  0.49677947  0.56003450  0.18576625  1
  H  H145  1  0.02126958  0.62871709  0.05754353  1
  C  C146  1  0.39088394  0.84629825  0.34219947  1
  C  C147  1  0.42368784  0.91943695  0.35119564  1
  C  C148  1  0.36466591  0.72185901  0.47330181  1
  C  C149  1  0.31284574  0.78929542  0.34067128  1
  C  C150  1  0.27785463  0.51714477  0.33807998  1
  H  H151  1  0.31338998  0.73101099  0.32477581  1
  C  C152  1  0.22098517  0.83912128  0.35130602  1
  C  C153  1  0.23015172  0.91850645  0.36376017  1
  H  H154  1  0.40609521  0.71959223  0.43666147  1
  O  O155  1  0.10895904  0.73138068  0.33645967  1
  C  C156  1  0.32266461  0.95997187  0.36139015  1
  H  H157  1  0.28587372  0.58348206  0.41612693  1
  H  H158  1  0.15808919  0.94951412  0.37249023  1
  H  H159  1  0.25829822  0.81391523  0.44849744  1
  C  C160  1  0.27752226  0.77091071  0.47887561  1
  C  C161  1  0.11986375  0.80146364  0.34757644  1
  O  O162  1  0.03122636  0.83976293  0.35358203  1
  O  O163  1  0.26865640  0.58070159  0.32834659  1
  C  C164  1  0.25846979  0.52318927  0.42710654  1
  C  C165  1  0.23997417  0.51379381  0.47752539  1
  C  C166  1  0.12177202  0.72154825  0.64062463  1
  C  C167  1  0.46298756  0.54901260  0.54030292  1
  C  C168  1  0.29276107  0.76900802  0.70100670  1
  H  H169  1  0.17578664  0.83869062  0.53096581  1
  C  C170  1  0.32516343  0.67059422  0.55580295  1
  C  C171  1  0.39212740  0.66670029  0.51013890  1
  C  C172  1  0.33690624  0.61771689  0.59577578  1
  C  C173  1  0.30769591  0.76963326  0.65015734  1
  C  C174  1  0.11208180  0.72381414  0.69366005  1
  C  C175  1  0.22626679  0.78454455  0.52617573  1
  H  H176  1  0.14987071  0.94451395  0.72944769  1
  C  C177  1  0.25188476  0.73434010  0.56544897  1
  C  C178  1  0.01363647  0.70759317  0.71979632  1
  C  C179  1  0.22106752  0.74260036  0.62068702  1
  H  H180  1  0.38135047  0.78999418  0.63293788  1
  C  C181  1  0.40609668  0.55417599  0.58590520  1
  C  C182  1  0.20032815  0.74442430  0.72445057  1
  C  C183  1  0.38127339  0.79956779  0.73117917  1
  H  H184  1  0.28885241  0.62649038  0.63082718  1
  H  H185  1  0.05577151  0.70411529  0.61369942  1
  O  O186  1  0.46239902  0.82270711  0.70643511  1
  H  H187  1  0.23463043  0.97583788  0.65359962  1
  C  C188  1  0.46935131  0.60499821  0.50285302  1
  H  H189  1  0.41916137  0.50607726  0.61197882  1
  O  O190  1  0.47641487  0.57392480  0.71258499  1
  O  O191  1  0.12722263  0.94423336  0.51781721  1
  C  C192  1  0.19939777  0.99612463  0.73028279  1
  C  C193  1  0.08843802  0.99695242  0.54245396  1
  O  O194  1  0.08936245  0.99802710  0.58751633  1
  H  H195  1  0.10298055  0.52417868  0.94808003  1
  C  C196  1  0.41567931  0.91021821  0.89362707  1
  O  O197  1  0.16838271  0.67361364  0.95232815  1
  H  H198  1  0.19353009  0.74769383  0.76451097  1
  Cu  Cu199  1  0.40520572  0.55170899  0.77233637  1
  H  H200  1  0.40251917  0.71774830  0.94751435  1
  C  C201  1  0.44686252  0.73685657  0.98181038  1
  O  O202  1  0.01823633  0.55193424  0.79822596  1
  O  O203  1  0.42532499  0.87244746  0.93006399  1
  C  C204  1  0.32283397  0.57209565  0.92511439  1
  H  H205  1  0.27959994  0.60092500  0.89503086  1
  C  C206  1  0.39628828  0.51116073  0.91423181  1
  O  O207  1  0.38340684  0.78813498  0.77772696  1
  O  O208  1  0.42352155  0.88318586  0.84848076  1
  O  O209  1  0.34691339  0.52750286  0.83071020  1
  C  C210  1  0.31595277  0.59008525  0.97533640  1
  H  H211  1  0.40693987  0.98907623  0.97867343  1
  H  H212  1  0.11767347  0.70928763  0.96878934  1
  O  O213  1  0.01068867  0.71859953  0.76598659  1
  C  C214  1  0.37831997  0.99182795  0.89826395  1
  C  C215  1  0.23224656  0.64702078  0.99145797  1
  H  H216  1  0.76623797  0.43089094  0.09359476  1
  C  C217  1  0.69267021  0.09719085  0.23375959  1
  C  C218  1  0.70324679  0.02300335  0.15325287  1
  C  C219  1  0.93907864  0.41535771  0.08549043  1
  H  H220  1  0.63969342  0.06554161  0.14080446  1
  H  H221  1  0.77133246  0.22397639  0.04697378  1
  H  H222  1  0.78955339  0.10403993  0.09105093  1
  H  H223  1  0.94481237  0.37476016  0.11605748  1
  C  C224  1  0.95374368  0.04405293  0.03618069  1
  O  O225  1  0.60229436  0.13625084  0.21813258  1
  C  C226  1  0.73999379  0.17079167  0.02935754  1
  C  C227  1  0.74927253  0.10329838  0.05754456  1
  C  C228  1  0.71294929  0.03033997  0.04056208  1
  C  C229  1  0.83913443  0.44588540  0.07212259  1
  C  C230  1  0.73770154  0.03502880  0.20164407  1
  H  H231  1  0.50497450  0.33544853  0.22056757  1
  H  H232  1  0.96503180  0.02810679  0.07551777  1
  C  C233  1  0.97719718  0.12011974  0.01945792  1
  C  C234  1  0.50066181  0.48766462  0.09239681  1
  C  C235  1  0.75192940  0.16217066  0.41327247  1
  C  C236  1  0.71440453  0.09274582  0.43787283  1
  H  H237  1  0.82358274  0.23846685  0.49094666  1
  C  C238  1  0.68164794  0.28487651  0.36299916  1
  O  O239  1  0.71822323  0.10587641  0.27529074  1
  C  C240  1  0.60149335  0.40739002  0.39629620  1
  H  H241  1  0.63537697  0.28744690  0.32638380  1
  O  O242  1  0.67681572  0.37926287  0.36552604  1
  H  H243  1  0.79254824  0.06042081  0.36421369  1
  C  C244  1  0.71402843  0.22895035  0.38669606  1
  O  O245  1  0.53424972  0.36893851  0.41736219  1
  C  C246  1  0.74207286  0.34759931  0.48587132  1
  H  H247  1  0.63207435  0.06869602  0.44046108  1
  H  H248  1  0.70471189  0.32918105  0.45073030  1
  C  C249  1  0.79568767  0.08656566  0.40106696  1
  H  H250  1  0.96909034  0.26872607  0.46681197  1
  Cu  Cu251  1  0.96103542  0.25092422  0.30761108  1
  O  O252  1  0.50244181  0.23118319  0.28458896  1
  O  O253  1  0.98718148  0.22572091  0.37600459  1
  O  O254  1  0.99211614  0.44262488  0.25245886  1
  H  H255  1  0.66164218  0.46111323  0.49160710  1
  C  C256  1  0.99399830  0.21256070  0.48087408  1
  C  C257  1  0.60743395  0.49106735  0.40491900  1
  C  C258  1  0.66572108  0.48396509  0.63364695  1
  Cu  Cu259  1  0.75276452  0.21567770  0.71066096  1
  O  O260  1  0.71523920  0.13878046  0.66655199  1
  O  O261  1  0.54195787  0.45634374  0.71950214  1
  C  C262  1  0.86729249  0.31309282  0.55172057  1
  H  H263  1  0.87448202  0.43827415  0.65075362  1
  H  H264  1  0.65265639  0.42419243  0.64612726  1
  O  O265  1  0.73443035  0.15757805  0.58546900  1
  C  C266  1  0.83904072  0.38303281  0.58211148  1
  C  C267  1  0.88771814  0.38315850  0.62965895  1
  H  H268  1  0.88955371  0.14500352  0.73810023  1
  C  C269  1  0.67740155  0.14418045  0.62075419  1
  H  H270  1  0.58252639  0.14975631  0.52970429  1
  C  C271  1  0.76064287  0.43207781  0.55814348  1
  C  C272  1  0.98919934  0.19948612  0.53388941  1
  C  C273  1  0.94608706  0.25881386  0.56973486  1
  C  C274  1  0.55850539  0.13504476  0.61024305  1
  O  O275  1  0.94396176  0.00478047  0.72257068  1
  O  O276  1  0.61533455  0.20933948  0.74575171  1
  C  C277  1  0.52571686  0.13464402  0.56097763  1
  H  H278  1  0.97987658  0.32874868  0.68933890  1
  H  H279  1  0.50259465  0.12002571  0.68745801  1
  C  C280  1  0.95304684  0.32481366  0.64988721  1
  C  C281  1  0.97795636  0.25955104  0.62053866  1
  C  C282  1  0.71239917  0.49763994  0.58665680  1
  C  C283  1  0.81679587  0.29411140  0.50505282  1
  C  C284  1  0.71445297  0.41770665  0.51096476  1
  C  C285  1  0.89258784  0.13621950  0.77832997  1
  Cu  Cu286  1  0.86275667  0.39583728  0.85261836  1
  H  H287  1  0.59196086  0.20852083  0.89416575  1
  O  O288  1  0.78679216  0.30594531  0.83295931  1
  O  O289  1  0.72686528  0.43612035  0.87217825  1
  H  H290  1  0.69410744  0.22467923  0.95942293  1
  C  C291  1  0.91751766  0.08715145  0.93582981  1
  C  C292  1  0.64443774  0.08001837  0.79940419  1
  H  H293  1  0.65083111  0.07611341  0.75967447  1
  C  C294  1  0.86159187  0.19098374  0.81220201  1
  C  C295  1  0.69718864  0.46877287  0.91754113  1
  C  C296  1  0.94816222  0.05452088  0.84737961  1
  C  C297  1  0.86376330  0.17766206  0.86430260  1
  C  C298  1  0.64396855  0.09206542  0.90306161  1
  Cu  Cu299  1  0.65395001  0.35511360  0.84410581  1
  C  C300  1  0.59998375  0.21832574  0.79218756  1
  C  C301  1  0.62310603  0.14960475  0.82252633  1
  C  C302  1  0.65734981  0.10149004  0.96026886  1
  C  C303  1  0.61534148  0.15488262  0.87454525  1
  O  O304  1  0.69510505  0.43006365  0.95384098  1
  C  C305  1  0.93821040  0.06945646  0.79640476  1
  C  C306  1  0.69191590  0.17018861  0.98097470  1
  C  C307  1  0.65741419  0.03445017  0.99141171  1
  C  C308  1  0.66717107  0.01556807  0.82963174  1
  H  H309  1  0.84039946  0.22219447  0.89110209  1
  O  O310  1  0.57499253  0.27764650  0.81402352  1
  C  C311  1  0.82196290  0.26709108  0.79754320  1
  C  C312  1  0.90328331  0.10684853  0.88149006  1
  O  O313  1  0.95363333  0.48358134  0.86264784  1
  C  C314  1  0.67979408  0.02278313  0.88162970  1
  Cu  Cu315  1  0.52725439  0.44062206  0.78834200  1
  C  C316  1  0.88400324  0.01391760  0.95062624  1
  C  C317  1  0.96084583  0.14730781  0.96894541  1
  O  O318  1  0.81717342  0.28684491  0.75219793  1
  H  H319  1  0.50053861  0.42255254  0.94127466  1
  H  H320  1  0.99077494  0.23532284  0.91534339  1
  H  H321  1  0.98060637  0.00053640  0.85850439  1
  C  C322  1  0.96998060  0.00360233  0.76513655  1
  C  C323  1  0.55377780  0.76033225  0.07268977  1
  C  C324  1  0.84551721  0.92199589  0.19499162  1
  H  H325  1  0.50596128  0.89421643  0.11419509  1
  C  C326  1  0.62552585  0.76944268  0.11551649  1
  C  C327  1  0.61505437  0.72059176  0.03274489  1
  H  H328  1  0.85516036  0.86647664  0.12174412  1
  C  C329  1  0.91427277  0.86343635  0.21925498  1
  C  C330  1  0.53293488  0.59977051  0.14235111  1
  C  C331  1  0.73000364  0.73934369  0.11974577  1
  C  C332  1  0.69035576  0.89309576  0.04257406  1
  C  C333  1  0.56377164  0.92699648  0.23894420  1
  C  C334  1  0.53918360  0.88329075  0.15173731  1
  C  C335  1  0.64858720  0.80951762  0.20852865  1
  H  H336  1  0.71340954  0.83947527  0.06128626  1
  C  C337  1  0.96703966  0.72739340  0.01491067  1
  C  C338  1  0.92630054  0.52219595  0.00510996  1
  H  H339  1  0.85803380  0.66664681  0.08645953  1
  H  H340  1  0.78221398  0.75890601  0.15031416  1
  C  C341  1  0.71907059  0.68809736  0.03653269  1
  C  C342  1  0.82284208  0.91520054  0.14399015  1
  C  C343  1  0.60719220  0.82000727  0.15961290  1
  C  C344  1  0.77623628  0.69519334  0.08246337  1
  H  H345  1  0.56286259  0.65928261  0.14441246  1
  O  O346  1  0.94164608  0.80761163  0.19256962  1
  C  C347  1  0.97933647  0.65009489  0.02331526  1
  H  H348  1  0.69617782  0.75802188  0.21762765  1
  C  C349  1  0.75005995  0.96684583  0.12223609  1
  C  C350  1  0.81366396  0.98461491  0.22229561  1
  C  C351  1  0.72488062  0.95998049  0.06660122  1
  C  C352  1  0.52236812  0.93532189  0.19133359  1
  C  C353  1  0.98746715  0.77946431  0.05914854  1
  H  H354  1  0.75544273  0.53546114  0.03113205  1
  H  H355  1  0.55886668  0.59995688  0.05991066  1
  C  C356  1  0.53503064  0.56427882  0.09533663  1
  H  H357  1  0.75982904  0.65817081  0.00561279  1
  C  C358  1  0.83443499  0.50718876  0.03519130  1
  O  O359  1  0.96734134  0.84606130  0.05783800  1
  H  H360  1  0.88477286  0.93371484  0.01281792  1
  C  C361  1  0.62749417  0.86279042  0.24451706  1
  C  C362  1  0.90675991  0.99146652  0.00180420  1
  Cu  Cu363  1  0.96598625  0.68453410  0.34019283  1
  O  O364  1  0.83694997  0.63428300  0.34265457  1
  C  C365  1  0.68734638  0.85474717  0.29496462  1
  H  H366  1  0.55438100  0.97118876  0.26807856  1
  C  C367  1  0.68933204  0.60989056  0.40118758  1
  C  C368  1  0.62013855  0.63679899  0.43764335  1
  Cu  Cu369  1  0.89535677  0.82036070  0.32662423  1
  H  H370  1  0.50845312  0.94445963  0.34914608  1
  O  O371  1  0.77549527  0.72274524  0.39353816  1
  O  O372  1  0.75973853  0.80391475  0.29806940  1
  C  C373  1  0.77526727  0.65792071  0.37886846  1
  O  O374  1  0.65754757  0.89126358  0.32993369  1
  C  C375  1  0.68535970  0.53429887  0.38273296  1
  O  O376  1  0.93936135  0.87165576  0.26361680  1
  H  H377  1  0.74570517  0.50846221  0.35777336  1
  H  H378  1  0.63008653  0.69500757  0.45377575  1
  H  H379  1  0.84010790  0.99074493  0.26265022  1
  C  C380  1  0.53881555  0.59149042  0.45779047  1
  C  C381  1  0.53297532  0.51615187  0.43956698  1
  Cu  Cu382  1  0.57333032  0.88171396  0.73328252  1
  O  O383  1  0.92931337  0.68127395  0.69774451  1
  C  C384  1  0.60714495  0.54388561  0.65726945  1
  C  C385  1  0.67465500  0.71286873  0.57981079  1
  C  C386  1  0.71940474  0.57283793  0.56662586  1
  O  O387  1  0.64191215  0.76395989  0.60342184  1
  C  C388  1  0.61215612  0.61694607  0.63901179  1
  O  O389  1  0.72549881  0.72495573  0.52843257  1
  Cu  Cu390  1  0.81306549  0.65715008  0.73682929  1
  C  C391  1  0.67331386  0.63058670  0.59485649  1
  H  H392  1  0.57539820  0.66520334  0.65995142  1
  H  H393  1  0.71103827  0.77813873  0.52835453  1
  H  H394  1  0.76237297  0.58843316  0.53040797  1
  C  C395  1  0.53905638  0.52053551  0.69794730  1
  H  H396  1  0.51864157  0.50111882  0.53552821  1
  C  C397  1  0.69903793  0.94083464  0.80693690  1
  H  H398  1  0.71183726  0.97428030  0.90475805  1
  C  C399  1  0.66621675  0.55139979  0.91441470  1
  H  H400  1  0.69919692  0.53776057  0.83710076  1
  Cu  Cu401  1  0.90009998  0.87315574  0.82108702  1
  H  H402  1  0.94252228  0.82394835  0.96597190  1
  C  C403  1  0.55325465  0.71257031  0.98778097  1
  O  O404  1  0.69051858  0.63298704  0.77256990  1
  H  H405  1  0.57093663  0.75405116  0.88943882  1
  C  C406  1  0.60143621  0.69530386  0.89435320  1
  O  O407  1  0.74214382  0.88923471  0.83251447  1
  C  C408  1  0.64122093  0.65473904  0.85368252  1
  C  C409  1  0.93829814  0.76081852  0.96927924  1
  Cu  Cu410  1  0.93950116  0.64262711  0.81166632  1
  H  H411  1  0.88228513  0.59374846  0.90834460  1
  O  O412  1  0.60193126  0.74173451  0.78830775  1
  H  H413  1  0.55968584  0.96087828  0.94030676  1
  C  C414  1  0.67794191  0.58003832  0.86541425  1
  C  C415  1  0.60029739  0.67021707  0.94346632  1
  C  C416  1  0.63228360  0.59333625  0.95571956  1
  C  C417  1  0.64726365  0.67893867  0.80217455  1
  O  O418  1  0.93411626  0.82043631  0.87540119  1
  O  O419  1  0.99636288  0.93670071  0.78661143  1
  C  C420  1  0.60649463  0.96570396  0.97475512  1
  H  H421  1  0.62471420  0.56184563  0.99159526  1
  C  C422  1  0.93612645  0.60294841  0.98470152  1
  C  C423  1  0.90299048  0.63356769  0.93920076  1
  C  C424  1  0.91283844  0.71139679  0.93147423  1
  C  C425  1  0.90307805  0.75270053  0.88285365  1
  O  O426  1  0.86873497  0.71510001  0.84661127  1
  H  H427  1  0.59094928  0.84180467  0.98428352  1
  H  H428  1  0.84620910  0.97543695  0.92358363  1
  Cu  Cu429  1  0.50955379  0.81127402  0.81798478  1
  O  O430  1  0.68024931  0.93625446  0.76180539  1
  C  C431  1  0.62900738  0.89525597  0.99733540  1
