# generated using pymatgen
data_Zn7H6C30(NO2)12
_symmetry_space_group_name_H-M   'P 1'
_cell_length_a   22.27383095
_cell_length_b   22.20546777
_cell_length_c   20.16348265
_cell_angle_alpha   90.00000000
_cell_angle_beta   90.00000000
_cell_angle_gamma   90.00000000
_symmetry_Int_Tables_number   1
_chemical_formula_structural   Zn7H6C30(NO2)12
_chemical_formula_sum   'Zn56 H48 C240 N96 O192'
_cell_volume   9972.87536414
_cell_formula_units_Z   8
loop_
 _symmetry_equiv_pos_site_id
 _symmetry_equiv_pos_as_xyz
  1  'x, y, z'
loop_
 _atom_site_type_symbol
 _atom_site_label
 _atom_site_symmetry_multiplicity
 _atom_site_fract_x
 _atom_site_fract_y
 _atom_site_fract_z
 _atom_site_occupancy
  O  O0  1  0.00347085  0.29209800  0.22832397  1
  N  N1  1  0.48103823  0.07934568  0.14456305  1
  O  O2  1  0.05846170  0.30378665  0.14434926  1
  O  O3  1  0.38603505  0.30229805  0.06814571  1
  C  C4  1  0.01086524  0.14447996  0.04737522  1
  O  O5  1  0.11499351  0.47002096  0.17769468  1
  O  O6  1  0.14744315  0.10658248  0.19288360  1
  C  C7  1  0.14091536  0.47723658  0.12126841  1
  C  C8  1  0.46447584  0.38120029  0.04789094  1
  Zn  Zn9  1  0.00691524  0.01206791  0.09909143  1
  Zn  Zn10  1  0.47534985  0.27901704  0.14572319  1
  N  N11  1  0.49276072  0.18261931  0.14979774  1
  O  O12  1  0.26727654  0.29730734  0.20811124  1
  C  C13  1  0.05320482  0.30325273  0.20513387  1
  Zn  Zn14  1  0.13115426  0.34214441  0.09340133  1
  C  C15  1  0.21368122  0.29433762  0.19044940  1
  O  O16  1  0.16491980  0.43225576  0.09278075  1
  O  O17  1  0.20185848  0.28249675  0.13042857  1
  H  H18  1  0.41263909  0.14393883  0.10901884  1
  C  C19  1  0.40135118  0.34867445  0.04037464  1
  C  C20  1  0.45918931  0.13268770  0.13040110  1
  Zn  Zn21  1  0.28652014  0.02175829  0.22605861  1
  O  O22  1  0.38711300  0.48593398  0.09953801  1
  C  C23  1  0.12735517  0.11183809  0.23990519  1
  H  H24  1  0.02343683  0.39582922  0.20306880  1
  N  N25  1  0.49968871  0.35568205  0.09404411  1
  C  C26  1  0.16993417  0.30730968  0.24621320  1
  N  N27  1  0.48287445  0.33350657  0.23646733  1
  O  O28  1  0.31267593  0.00683616  0.12674354  1
  C  C29  1  0.06785886  0.14164884  0.00642044  1
  O  O30  1  0.44533242  0.07887286  0.00526615  1
  O  O31  1  0.36249213  0.37352337  0.00358712  1
  O  O32  1  0.42794297  0.33367406  0.38616482  1
  O  O33  1  0.27368154  0.18411738  0.33428566  1
  O  O34  1  0.27378994  0.29396707  0.43474965  1
  C  C35  1  0.30693675  0.33062888  0.46548666  1
  O  O36  1  0.06607260  0.16326710  0.39700445  1
  N  N37  1  0.42663811  0.07034590  0.41001690  1
  C  C38  1  0.30266468  0.13939296  0.31273188  1
  O  O39  1  0.32849884  0.42791879  0.29891887  1
  C  C40  1  0.13685553  0.46352138  0.41334207  1
  C  C41  1  0.10433966  0.43346702  0.46759591  1
  O  O42  1  0.07407677  0.26205457  0.43366867  1
  H  H43  1  0.10695938  0.17164487  0.41026973  1
  O  O44  1  0.28409756  0.11187568  0.26133702  1
  Zn  Zn45  1  0.01658198  0.36907125  0.35915279  1
  N  N46  1  0.36944141  0.15502301  0.40590414  1
  C  C47  1  0.39075148  0.06728889  0.35577211  1
  O  O48  1  0.38874340  0.27296657  0.31182802  1
  H  H49  1  0.15727916  0.34047949  0.39887735  1
  O  O50  1  0.41733317  0.44218224  0.49214681  1
  C  C51  1  0.41437298  0.12453352  0.43705317  1
  N  N52  1  0.09488726  0.33847989  0.31510625  1
  C  C53  1  0.43115028  0.29896465  0.33838583  1
  C  C54  1  0.14653831  0.33281786  0.34613524  1
  C  C55  1  0.04272655  0.22650893  0.40658345  1
  O  O56  1  0.11568552  0.45815834  0.35373928  1
  C  C57  1  0.29101590  0.46872187  0.28800387  1
  Zn  Zn58  1  0.03161301  0.11349103  0.48492167  1
  N  N59  1  0.19542317  0.31186278  0.30790079  1
  Zn  Zn60  1  0.38498154  0.42273226  0.38952034  1
  N  N61  1  0.05386085  0.39797971  0.45440400  1
  C  C62  1  0.35179684  0.12159934  0.35635502  1
  O  O63  1  0.30829237  0.38391357  0.44601522  1
  Zn  Zn64  1  0.29394274  0.28050652  0.33220449  1
  C  C65  1  0.40752934  0.00996706  0.31670791  1
  C  C66  1  0.48994933  0.31121686  0.30014794  1
  O  O67  1  0.23780690  0.45315664  0.27032299  1
  C  C68  1  0.13023833  0.00839844  0.48755016  1
  H  H69  1  0.44320918  0.14575937  0.47674857  1
  C  C70  1  0.10675443  0.32127867  0.25096022  1
  O  O71  1  0.18113690  0.49868731  0.42176550  1
  O  O72  1  0.07783411  0.01142513  0.46634097  1
  O  O73  1  0.43088554  0.49678043  0.34662075  1
  N  N74  1  0.12790639  0.11239333  0.48292574  1
  C  C75  1  0.16746747  0.06700599  0.49368391  1
  O  O76  1  0.04572650  0.17442378  0.63239264  1
  C  C77  1  0.16162618  0.32323406  0.72759727  1
  C  C78  1  0.21149965  0.28888025  0.70365584  1
  N  N79  1  0.06689939  0.40278188  0.56752892  1
  Zn  Zn80  1  0.26022408  0.22077486  0.58542943  1
  C  C81  1  0.11135632  0.43442563  0.53768154  1
  C  C82  1  0.04350411  0.12132078  0.63535323  1
  O  O83  1  0.43467984  0.12030233  0.68602950  1
  C  C84  1  0.14210002  0.28171887  0.63211774  1
  O  O85  1  0.10588067  0.21419181  0.74662986  1
  C  C86  1  0.22318392  0.09721811  0.52379769  1
  H  H87  1  0.11716398  0.27493851  0.58304041  1
  C  C88  1  0.40376554  0.34244894  0.54414994  1
  N  N89  1  0.43261484  0.30732309  0.59066818  1
  N  N90  1  0.11912784  0.32373443  0.67738422  1
  Zn  Zn91  1  0.04095722  0.39801405  0.66659121  1
  C  C92  1  0.27971612  0.26587759  0.72302705  1
  C  C93  1  0.03389019  0.38171976  0.51795108  1
  C  C94  1  0.41651829  0.13887162  0.74486097  1
  N  N95  1  0.34473507  0.26079468  0.55523935  1
  O  O96  1  0.48106978  0.41996698  0.56332833  1
  Zn  Zn97  1  0.39662771  0.06782999  0.61640269  1
  N  N98  1  0.19828460  0.26390269  0.64478403  1
  H  H99  1  0.40719369  0.22723533  0.63426026  1
  C  C100  1  0.39791357  0.26083836  0.59560117  1
  O  O101  1  0.28650876  0.00903729  0.54486624  1
  C  C102  1  0.08238641  0.08690403  0.69236965  1
  C  C103  1  0.34942126  0.31455390  0.52047861  1
  N  N104  1  0.08444649  0.02518077  0.68687700  1
  O  O105  1  0.31431980  0.10065519  0.57391563  1
  N  N106  1  0.03657600  0.49933242  0.69380313  1
  O  O107  1  0.30459233  0.22989090  0.68483317  1
  C  C108  1  0.43596298  0.40437242  0.53244407  1
  C  C109  1  0.16047938  0.46911399  0.58174395  1
  O  O110  1  0.15377080  0.46951956  0.64001445  1
  C  C111  1  0.27627388  0.06508308  0.54975427  1
  N  N112  1  0.33482536  0.06944320  0.72326405  1
  O  O113  1  0.46802362  0.02802325  0.56113943  1
  O  O114  1  0.02509721  0.08895554  0.58725184  1
  H  H115  1  0.25445384  0.01449913  0.73719887  1
  N  N116  1  0.22364743  0.15924664  0.51952097  1
  O  O117  1  0.20492418  0.49377624  0.55409716  1
  C  C118  1  0.16840351  0.15284659  0.50026216  1
  C  C119  1  0.12272036  0.10784419  0.73988049  1
  C  C120  1  0.12547654  0.01101100  0.73284462  1
  Zn  Zn121  1  0.08317754  0.47095305  0.83331252  1
  C  C122  1  0.14787937  0.35243846  0.78962718  1
  O  O123  1  0.18276375  0.17355304  0.80778020  1
  O  O124  1  0.09133857  0.42436584  0.92667042  1
  Zn  Zn125  1  0.35150873  0.46897804  0.99035556  1
  C  C126  1  0.31842650  0.11752184  0.82121344  1
  O  O127  1  0.18724888  0.35102338  0.83841660  1
  O  O128  1  0.44074885  0.47957991  0.93323774  1
  O  O129  1  0.09763092  0.34851643  0.99377656  1
  C  C130  1  0.11668340  0.37871693  0.94635154  1
  O  O131  1  0.36385965  0.18802408  0.90302001  1
  N  N132  1  0.15015617  0.05867853  0.77006351  1
  O  O133  1  0.27740909  0.15297108  0.92918891  1
  C  C134  1  0.18300251  0.37178195  0.92159011  1
  H  H135  1  0.19807421  0.13132068  0.80072692  1
  C  C136  1  0.21665611  0.43195763  0.93716558  1
  C  C137  1  0.32210083  0.15526045  0.88958103  1
  O  O138  1  0.09965168  0.37817711  0.79737987  1
  N  N139  1  0.15214187  0.10788604  0.94976930  1
  C  C140  1  0.24675279  0.36487935  0.97393075  1
  N  N141  1  0.26639176  0.42048207  0.96909911  1
  C  C142  1  0.14568337  0.16796069  0.95906869  1
  Zn  Zn143  1  0.19647657  0.06280978  0.87356910  1
  C  C144  1  0.48386478  0.10390214  0.97233254  1
  Zn  Zn145  1  0.21281745  0.22571280  0.92573637  1
  N  N146  1  0.20572931  0.32214430  0.95648010  1
  N  N147  1  0.09847989  0.19069670  0.99139919  1
  C  C148  1  0.13422552  0.17100201  0.75882241  1
  N  N149  1  0.27163480  0.08142662  0.81301251  1
  C  C150  1  0.48430664  0.03143421  0.85797157  1
  O  O151  1  0.29827608  0.28106426  0.77448916  1
  O  O152  1  0.44631760  0.17354154  0.77909852  1
  C  C153  1  0.35699906  0.11212319  0.76361279  1
  C  C154  1  0.10094534  0.08833296  0.97992970  1
  C  C155  1  0.49124729  0.47524806  0.96315606  1
  C  C156  1  0.10783722  0.02002728  0.99473453  1
  C  C157  1  0.28255695  0.05160707  0.75636622  1
  O  O158  1  0.45530534  0.86486805  0.20990543  1
  O  O159  1  0.22537063  0.82999529  0.04801832  1
  O  O160  1  0.08863533  0.88472850  0.08130715  1
  Zn  Zn161  1  0.11969690  0.72962612  0.09142254  1
  O  O162  1  0.41735778  0.67882383  0.19579666  1
  C  C163  1  0.39169876  0.65738706  0.07035740  1
  N  N164  1  0.12792848  0.79705152  0.17569901  1
  C  C165  1  0.38627576  0.59217662  0.07327976  1
  N  N166  1  0.38458374  0.67648438  0.00385022  1
  C  C167  1  0.33596775  0.92285056  0.06451565  1
  C  C168  1  0.14235839  0.53860638  0.09439578  1
  C  C169  1  0.39626624  0.53849076  0.11791681  1
  Zn  Zn170  1  0.17013525  0.91570455  0.03781569  1
  C  C171  1  0.07501286  0.89163635  0.13932056  1
  C  C172  1  0.49893021  0.89767751  0.21123068  1
  O  O173  1  0.41506988  0.54498785  0.17728409  1
  N  N174  1  0.14105261  0.63807382  0.08214197  1
  C  C175  1  0.13148244  0.59661348  0.12816708  1
  O  O176  1  0.09336645  0.67112809  0.20295370  1
  N  N177  1  0.06593157  0.74870702  0.01584083  1
  N  N178  1  0.15953035  0.54780388  0.03310232  1
  C  C179  1  0.41131998  0.70058194  0.11946447  1
  O  O180  1  0.41984713  0.75189410  0.10776351  1
  N  N181  1  0.39378386  0.93963317  0.06191806  1
  C  C182  1  0.10911919  0.61890868  0.19789538  1
  C  C183  1  0.09653760  0.84925741  0.18940353  1
  N  N184  1  0.37964305  0.84711987  0.00336614  1
  C  C185  1  0.32632161  0.86672999  0.02817983  1
  N  N186  1  0.36882500  0.57220911  0.01029982  1
  C  C187  1  0.15506446  0.60886477  0.02529869  1
  O  O188  1  0.23926732  0.94286529  0.11088259  1
  Zn  Zn189  1  0.48025705  0.60968754  0.21064581  1
  H  H190  1  0.43256456  0.71804026  0.21013337  1
  C  C191  1  0.29221917  0.95934713  0.09903003  1
  C  C192  1  0.41569797  0.89003730  0.02022191  1
  C  C193  1  0.00979745  0.76628708  0.01820381  1
  Zn  Zn194  1  0.44535536  0.99161132  0.13388853  1
  O  O195  1  0.04652724  0.93879100  0.15729762  1
  H  H196  1  0.46555855  0.88483399  0.01309423  1
  C  C197  1  0.27116671  0.82251871  0.01396827  1
  O  O198  1  0.10578577  0.57999292  0.24331573  1
  C  C199  1  0.14638051  0.78208432  0.24108912  1
  H  H200  1  0.32277954  0.78048361  0.21636052  1
  O  O201  1  0.06496508  0.99406432  0.01955479  1
  O  O202  1  0.45290124  0.98013438  0.33516223  1
  C  C203  1  0.28219321  0.62823497  0.29431647  1
  N  N204  1  0.12878022  0.81850247  0.29013135  1
  C  C205  1  0.29679478  0.87634395  0.32658717  1
  C  C206  1  0.45259064  0.65471013  0.47405629  1
  C  C207  1  0.06551238  0.90281093  0.31664003  1
  N  N208  1  0.25691449  0.57162649  0.28168856  1
  C  C209  1  0.33452061  0.83712600  0.36620879  1
  O  O210  1  0.34300178  0.90355982  0.47236841  1
  C  C211  1  0.35595629  0.84278705  0.43451260  1
  Zn  Zn212  1  0.03653594  0.91712375  0.46429402  1
  N  N213  1  0.29209277  0.85394969  0.26601519  1
  C  C214  1  0.42161161  0.54881573  0.32783839  1
  H  H215  1  0.25605948  0.67154469  0.30183492  1
  C  C216  1  0.32160470  0.80237572  0.26686176  1
  N  N217  1  0.34042360  0.62699289  0.31307711  1
  O  O218  1  0.24061775  0.95905656  0.28258513  1
  C  C219  1  0.30066664  0.53353074  0.29705467  1
  C  C220  1  0.35352013  0.56829927  0.31502153  1
  O  O221  1  0.35015256  0.61877330  0.46554477  1
  C  C222  1  0.19320033  0.69265512  0.42062190  1
  O  O223  1  0.08866386  0.90526959  0.37287052  1
  N  N224  1  0.34744214  0.78596495  0.32753574  1
  O  O225  1  0.18900145  0.63943512  0.40547071  1
  O  O226  1  0.19357428  0.73082607  0.37456919  1
  Zn  Zn227  1  0.38101636  0.69960781  0.35248734  1
  C  C228  1  0.09666169  0.86051184  0.25895762  1
  N  N229  1  0.45276739  0.68985114  0.41869591  1
  O  O230  1  0.46343398  0.58427044  0.32211893  1
  O  O231  1  0.26038223  0.96489004  0.38652802  1
  Zn  Zn232  1  0.14838196  0.80926300  0.39052459  1
  O  O233  1  0.38577096  0.80729227  0.46124119  1
  C  C234  1  0.26223140  0.93603368  0.33363958  1
  O  O235  1  0.07773227  0.80043129  0.47140635  1
  C  C236  1  0.03523555  0.76525827  0.46737508  1
  O  O237  1  0.21048272  0.84352900  0.46152645  1
  O  O238  1  0.03722202  0.71448674  0.48699816  1
  O  O239  1  0.02276261  0.93593641  0.30459192  1
  Zn  Zn240  1  0.15886543  0.50380491  0.26603282  1
  H  H241  1  0.16644991  0.73824737  0.25254522  1
  O  O242  1  0.38282636  0.99607466  0.26351691  1
  C  C243  1  0.39912369  0.60899735  0.48663917  1
  C  C244  1  0.19738010  0.70718905  0.49626548  1
  Zn  Zn245  1  0.24564208  0.93990328  0.48660406  1
  Zn  Zn246  1  0.18822310  0.56797992  0.49044143  1
  Zn  Zn247  1  0.01826177  0.96636808  0.65005727  1
  O  O248  1  0.11094579  0.68926359  0.71832980  1
  C  C249  1  0.08237696  0.65932350  0.68276971  1
  O  O250  1  0.01289341  0.58244868  0.54152204  1
  H  H251  1  0.12579193  0.77647534  0.70407214  1
  O  O252  1  0.23347361  0.86583263  0.56841786  1
  N  N253  1  0.21170558  0.83230442  0.72076505  1
  C  C254  1  0.06419757  0.59463583  0.69604553  1
  O  O255  1  0.44547692  0.71077614  0.65455234  1
  O  O256  1  0.05706579  0.68706081  0.62687592  1
  C  C257  1  0.03373505  0.54759519  0.65679027  1
  H  H258  1  0.22421449  0.64027132  0.63395384  1
  C  C259  1  0.21530877  0.75681941  0.53671591  1
  O  O260  1  0.35674789  0.74978420  0.63882963  1
  C  C261  1  0.21169335  0.67294782  0.59420708  1
  N  N262  1  0.22839522  0.73526312  0.60114586  1
  Zn  Zn263  1  0.49201414  0.51701734  0.52257299  1
  C  C264  1  0.14994188  0.81442789  0.72655098  1
  Zn  Zn265  1  0.27789122  0.77932373  0.68026711  1
  C  C266  1  0.40101055  0.73426889  0.67694219  1
  O  O267  1  0.40894445  0.56346432  0.52587618  1
  H  H268  1  0.23088660  0.83484588  0.60589378  1
  N  N269  1  0.19440718  0.65620996  0.53416647  1
  H  H270  1  0.03753029  0.64968122  0.60437786  1
  O  O271  1  0.47574406  0.97712287  0.65167452  1
  C  C272  1  0.21969856  0.81907297  0.51468865  1
  C  C273  1  0.00608389  0.54052003  0.58427842  1
  O  O274  1  0.15100550  0.95750148  0.50558102  1
  C  C275  1  0.49025411  0.98304984  0.59099679  1
  H  H276  1  0.36301678  0.89610393  0.51141739  1
  C  C277  1  0.08023328  0.76149192  0.95066992  1
  O  O278  1  0.15371975  0.88768187  0.93175274  1
  H  H279  1  0.12842150  0.76404895  0.93669338  1
  O  O280  1  0.09801396  0.94379145  0.86843661  1
  H  H281  1  0.12843672  0.96638832  0.75307613  1
  O  O282  1  0.16002159  0.99717255  0.99336319  1
  Zn  Zn283  1  0.03856541  0.82272863  0.81298300  1
  Zn  Zn284  1  0.39060170  0.76376441  0.96154195  1
  C  C285  1  0.38916528  0.74434660  0.75453207  1
  N  N286  1  0.11961731  0.84086212  0.77570858  1
  O  O287  1  0.45310702  0.93508118  0.80885209  1
  H  H288  1  0.35608405  0.61723549  0.92252130  1
  O  O289  1  0.26154121  0.94932068  0.84684148  1
  C  C290  1  0.16053892  0.87608595  0.80609385  1
  H  H291  1  0.16335541  0.62761919  0.97562703  1
  C  C292  1  0.13514211  0.90547753  0.87671824  1
  C  C293  1  0.44151910  0.97650729  0.85315870  1
  N  N294  1  0.38183452  0.76225240  0.86237907  1
  C  C295  1  0.32799533  0.77408177  0.82736158  1
  C  C296  1  0.48253475  0.71421396  0.83837327  1
  C  C297  1  0.41850128  0.73896771  0.81747467  1
  H  H298  1  0.28648648  0.79126224  0.85123531  1
  O  O299  1  0.39790144  0.97198521  0.88647691  1
  H  H300  1  0.30214379  0.95708002  0.85629477  1
  C  C301  1  0.36913272  0.62213776  0.97399290  1
  N  N302  1  0.03747297  0.78466758  0.90958727  1
  C  C303  1  0.21595448  0.87515810  0.77162813  1
  C  C304  1  0.26985361  0.91141782  0.78578592  1
  N  N305  1  0.33227276  0.76779589  0.76273336  1
  C  C306  1  0.06404183  0.52161668  0.75141868  1
  N  N307  1  0.08358671  0.57852762  0.75594181  1
  O  O308  1  0.27268063  0.78329565  0.97087281  1
  O  O309  1  0.31676635  0.91085979  0.75948525  1
  C  C310  1  0.22060563  0.50062245  0.90730965  1
  O  O311  1  0.17558732  0.52182773  0.87999307  1
  O  O312  1  0.26828592  0.52543844  0.91591821  1
  C  C313  1  0.53768904  0.08702605  0.16910145  1
  O  O314  1  0.71963517  0.45335052  0.17301003  1
  C  C315  1  0.85204397  0.03327956  0.14357860  1
  C  C316  1  0.85973698  0.30923267  0.16674518  1
  C  C317  1  0.81039382  0.10068474  0.15114858  1
  C  C318  1  0.59161619  0.19785950  0.19026513  1
  H  H319  1  0.63353036  0.13005515  0.21334684  1
  O  O320  1  0.64823151  0.17319821  0.20885407  1
  C  C321  1  0.92741590  0.49987711  0.23604213  1
  C  C322  1  0.76527882  0.42953285  0.18848130  1
  O  O323  1  0.96185035  0.14372109  0.23098672  1
  H  H324  1  0.77445580  0.04762611  0.24810501  1
  O  O325  1  0.81593274  0.44988434  0.16899506  1
  N  N326  1  0.55289605  0.42862097  0.04526629  1
  N  N327  1  0.79454670  0.04996049  0.12106046  1
  O  O328  1  0.99839754  0.06299126  0.19167058  1
  C  C329  1  0.54365707  0.15363627  0.17365082  1
  C  C330  1  0.50061764  0.42606306  0.01392715  1
  O  O331  1  0.87513221  0.25575310  0.14830831  1
  Zn  Zn332  1  0.75759203  0.03219457  0.02650257  1
  C  C333  1  0.80583978  0.31677204  0.21729729  1
  C  C334  1  0.88611481  0.07838721  0.18108835  1
  O  O335  1  0.59107080  0.25160187  0.18821430  1
  O  O336  1  0.88481180  0.35005505  0.14272555  1
  N  N337  1  0.85031978  0.12948552  0.18805944  1
  Zn  Zn338  1  0.96202158  0.22590785  0.16569184  1
  C  C339  1  0.95363973  0.09338860  0.20393244  1
  O  O340  1  0.57598828  0.04711590  0.19102342  1
  H  H341  1  0.59414338  0.37323747  0.12174405  1
  C  C342  1  0.55244009  0.38504792  0.09212855  1
  N  N343  1  0.96413805  0.47609792  0.19110702  1
  C  C344  1  0.98919176  0.42797791  0.22280684  1
  C  C345  1  0.76722751  0.36734423  0.22787557  1
  O  O346  1  0.97927793  0.10048692  0.05804293  1
  O  O347  1  0.99700489  0.19622984  0.06700245  1
  H  H348  1  0.65890850  0.13423363  0.01044408  1
  H  H349  1  0.54785638  0.47620100  0.21791396  1
  N  N350  1  0.69587946  0.03860669  0.31603508  1
  C  C351  1  0.92458722  0.12634924  0.38853488  1
  O  O352  1  0.53364581  0.26998560  0.44822869  1
  C  C353  1  0.71616343  0.12977406  0.36086041  1
  C  C354  1  0.72817081  0.18847561  0.40318714  1
  N  N355  1  0.75612972  0.12254426  0.30882997  1
  Zn  Zn356  1  0.85172281  0.01501735  0.41104622  1
  N  N357  1  0.95857131  0.29218335  0.36348264  1
  Zn  Zn358  1  0.65887446  0.41267937  0.31140776  1
  C  C359  1  0.62570841  0.05830827  0.40950502  1
  N  N360  1  0.97487279  0.42399228  0.28911366  1
  O  O361  1  0.59400704  0.01313649  0.39699442  1
  C  C362  1  0.68506363  0.48093448  0.44849233  1
  N  N363  1  0.89082567  0.21881403  0.32701485  1
  N  N364  1  0.78728869  0.27230424  0.25800265  1
  C  C365  1  0.90238138  0.27769212  0.33870020  1
  C  C366  1  0.74544094  0.06706823  0.28713016  1
  C  C367  1  0.67808313  0.07799631  0.36600299  1
  C  C368  1  0.93507015  0.19060286  0.36469797  1
  O  O369  1  0.69147512  0.19768145  0.45136587  1
  O  O370  1  0.87470810  0.09978215  0.37889888  1
  C  C371  1  0.72630635  0.41041002  0.45111696  1
  C  C372  1  0.55797605  0.31262585  0.41971937  1
  O  O373  1  0.77318163  0.21719416  0.39728515  1
  Zn  Zn374  1  0.50110292  0.01811217  0.41789019  1
  N  N375  1  0.57719555  0.36082918  0.30284667  1
  C  C376  1  0.89194906  0.46686900  0.36490505  1
  N  N377  1  0.67909585  0.42871127  0.41469746  1
  H  H378  1  0.87306954  0.31223260  0.31914051  1
  C  C379  1  0.73605619  0.29666791  0.28771228  1
  O  O380  1  0.59563567  0.34387807  0.44618909  1
  C  C381  1  0.54491300  0.32123400  0.33929224  1
  H  H382  1  0.71008076  0.27363173  0.32502039  1
  C  C383  1  0.93197360  0.46417332  0.29562537  1
  O  O384  1  0.96189115  0.09800675  0.42226788  1
  Zn  Zn385  1  0.82019073  0.18246673  0.27539931  1
  O  O386  1  0.61502321  0.08651038  0.46153090  1
  C  C387  1  0.98107990  0.23425155  0.38061773  1
  N  N388  1  0.72429699  0.35494395  0.27310871  1
  N  N389  1  0.63243579  0.49676010  0.26786419  1
  O  O390  1  0.86578630  0.42273090  0.38113167  1
  O  O391  1  0.78498859  0.01827998  0.48852033  1
  C  C392  1  0.74344699  0.47930763  0.48456169  1
  C  C393  1  0.53620809  0.35716651  0.25587774  1
  O  O394  1  0.57188855  0.48877165  0.46672611  1
  N  N395  1  0.77104567  0.42421354  0.49261372  1
  C  C396  1  0.59533897  0.20565471  0.61193717  1
  C  C397  1  0.69273035  0.28286143  0.60499446  1
  Zn  Zn398  1  0.68912436  0.13203134  0.53065039  1
  C  C399  1  0.75205255  0.25352804  0.58964326  1
  H  H400  1  0.63840673  0.41144981  0.63040860  1
  C  C401  1  0.90895019  0.39866152  0.69862804  1
  O  O402  1  0.54210902  0.20376446  0.61644333  1
  C  C403  1  0.84250022  0.03107546  0.58553410  1
  O  O404  1  0.97610033  0.49729140  0.57230407  1
  O  O405  1  0.89535911  0.19075206  0.53356293  1
  Zn  Zn406  1  0.75133383  0.04800419  0.70612403  1
  Zn  Zn407  1  0.79954649  0.38736405  0.60134888  1
  N  N408  1  0.60241404  0.32037150  0.62288800  1
  C  C409  1  0.63167367  0.26758563  0.61250589  1
  C  C410  1  0.88650827  0.45953636  0.71649311  1
  C  C411  1  0.64498333  0.36361317  0.62200799  1
  O  O412  1  0.95468792  0.27471014  0.55411119  1
  N  N413  1  0.84087155  0.47275922  0.67167061  1
  O  O414  1  0.51830392  0.42471417  0.71874505  1
  O  O415  1  0.75281571  0.19773630  0.58321362  1
  C  C416  1  0.78526288  0.03628752  0.54584836  1
  O  O417  1  0.62728415  0.15803054  0.60574487  1
  O  O418  1  0.95884328  0.38053644  0.72058515  1
  O  O419  1  0.79797714  0.28516994  0.58056998  1
  N  N420  1  0.70289667  0.34422481  0.61083971  1
  C  C421  1  0.90220654  0.00415370  0.57546778  1
  C  C422  1  0.89394391  0.04052301  0.67362998  1
  C  C423  1  0.92417198  0.23356988  0.54402124  1
  O  O424  1  0.87693810  0.36650762  0.66070915  1
  O  O425  1  0.73850636  0.05835276  0.57052116  1
  N  N426  1  0.83600540  0.04730842  0.65166068  1
  O  O427  1  0.67289106  0.00814789  0.72918676  1
  H  H428  1  0.90660208  0.04151857  0.72559466  1
  O  O429  1  0.73535637  0.13972150  0.74095253  1
  N  N430  1  0.93344770  0.01246789  0.63331771  1
  Zn  Zn431  1  0.50893593  0.32749279  0.64575267  1
  N  N432  1  0.52765253  0.30968365  0.74807500  1
  O  O433  1  0.71022544  0.48313484  0.71124314  1
  H  H434  1  0.98855725  0.35505671  0.52443932  1
  H  H435  1  0.52790222  0.21028542  0.74510942  1
  N  N436  1  0.66685137  0.15581603  0.90731163  1
  C  C437  1  0.75033111  0.09940789  0.89089447  1
  O  O438  1  0.68385807  0.45538986  0.81131283  1
  C  C439  1  0.68790126  0.13645684  0.96444214  1
  O  O440  1  0.51092491  0.14722200  0.99669102  1
  O  O441  1  0.59508946  0.29351380  0.96835602  1
  C  C442  1  0.79988735  0.06773375  0.86308909  1
  C  C443  1  0.69426583  0.15023203  0.78268655  1
  N  N444  1  0.74258277  0.10321113  0.96077878  1
  O  O445  1  0.97605719  0.47533054  0.84215211  1
  C  C446  1  0.53163817  0.41339514  0.77563929  1
  C  C447  1  0.59592896  0.32914059  0.92448781  1
  C  C448  1  0.70378962  0.13401822  0.86100211  1
  C  C449  1  0.56667441  0.31175693  0.85363365  1
  O  O450  1  0.62689212  0.37687360  0.93287807  1
  Zn  Zn451  1  0.58392608  0.18943690  0.89435255  1
  H  H452  1  0.82423132  0.05737065  0.95205190  1
  O  O453  1  0.80854476  0.06022376  0.80467281  1
  N  N454  1  0.54624525  0.11000639  0.86659444  1
  C  C455  1  0.54367382  0.34716243  0.79775415  1
  N  N456  1  0.56041260  0.25574913  0.83483776  1
  C  C457  1  0.55787581  0.07705556  0.81072694  1
  O  O458  1  0.64836734  0.17329525  0.76196773  1
  O  O459  1  0.53764268  0.45524948  0.81794608  1
  Zn  Zn460  1  0.61296145  0.45912584  0.88412832  1
  C  C461  1  0.53538531  0.25343993  0.77274448  1
  O  O462  1  0.83935105  0.03930274  0.90775257  1
  H  H463  1  0.59590365  0.08119676  0.77387733  1
  H  H464  1  0.68429240  0.01403782  0.96265167  1
  N  N465  1  0.52318872  0.02726885  0.80601614  1
  C  C466  1  0.70321416  0.49432153  0.76847077  1
  C  C467  1  0.50328576  0.08083661  0.89991030  1
  O  O468  1  0.82268848  0.49813152  0.99522552  1
  O  O469  1  0.63840136  0.02002749  0.96704176  1
  Zn  Zn470  1  0.96095154  0.91708282  0.22784911  1
  C  C471  1  0.55889348  0.98205884  0.20134971  1
  O  O472  1  0.75865472  0.67878516  0.11841855  1
  O  O473  1  0.93062873  0.95742273  0.13620508  1
  C  C474  1  0.81299822  0.84647433  0.19908740  1
  Zn  Zn475  1  0.93939781  0.76956159  0.07235210  1
  Zn  Zn476  1  0.75305308  0.76138991  0.06059008  1
  C  C477  1  0.76583714  0.63359821  0.08366124  1
  O  O478  1  0.56530784  0.83567667  0.04825497  1
  O  O479  1  0.61726820  0.75963705  0.01225721  1
  N  N480  1  0.50683712  0.95341791  0.18189039  1
  O  O481  1  0.55061333  0.68376116  0.23215835  1
  N  N482  1  0.72410356  0.83748058  0.01424078  1
  C  C483  1  0.89177298  0.55532701  0.21955091  1
  C  C484  1  0.79302162  0.63840621  0.01016679  1
  C  C485  1  0.87827903  0.97125345  0.11614836  1
  C  C486  1  0.87187944  0.81829964  0.18984964  1
  H  H487  1  0.67262420  0.86144775  0.17362673  1
  N  N488  1  0.59392282  0.94660653  0.23924418  1
  C  C489  1  0.71889617  0.86093761  0.18871942  1
  N  N490  1  0.76569853  0.83024897  0.15886923  1
  O  O491  1  0.75144649  0.58299101  0.10592927  1
  O  O492  1  0.87713157  0.78196515  0.14028521  1
  Zn  Zn493  1  0.83284142  0.51897784  0.09236188  1
  O  O494  1  0.91633387  0.83089606  0.22539400  1
  O  O495  1  0.88701397  0.56916549  0.15813377  1
  C  C496  1  0.61064819  0.81454573  0.02757021  1
  C  C497  1  0.66697640  0.85790309  0.00590791  1
  O  O498  1  0.85298649  0.93959302  0.07706972  1
  O  O499  1  0.52939276  0.62422424  0.04147488  1
  N  N500  1  0.73186153  0.89477295  0.24236409  1
  H  H501  1  0.80492736  0.88653257  0.02420653  1
  N  N502  1  0.56098548  0.56698515  0.23233884  1
  C  C503  1  0.79349856  0.88895076  0.24764511  1
  C  C504  1  0.56007091  0.89788187  0.24501231  1
  C  C505  1  0.57932633  0.50839679  0.23540240  1
  C  C506  1  0.75746591  0.88881573  0.00533754  1
  O  O507  1  0.84859817  0.68544412  0.39519648  1
  C  C508  1  0.91985375  0.75827508  0.41680014  1
  C  C509  1  0.90061209  0.69357008  0.41501991  1
  C  C510  1  0.57856901  0.85736974  0.30768824  1
  O  O511  1  0.91898547  0.96581252  0.46346739  1
  C  C512  1  0.56820219  0.88860953  0.47557924  1
  C  C513  1  0.71803280  0.56153970  0.31014683  1
  O  O514  1  0.87718832  0.94433517  0.28499701  1
  H  H515  1  0.59013329  0.87652297  0.42583687  1
  Zn  Zn516  1  0.82557816  0.59171834  0.37186908  1
  O  O517  1  0.62665390  0.56796640  0.47908553  1
  N  N518  1  0.88487726  0.79943507  0.39033784  1
  O  O519  1  0.92916545  0.64910947  0.44195883  1
  O  O520  1  0.63228079  0.86672753  0.32657157  1
  O  O521  1  0.73536581  0.61316702  0.32830632  1
  O  O522  1  0.75370783  0.52079941  0.32109681  1
  N  N523  1  0.53674183  0.94046621  0.49096387  1
  C  C524  1  0.97519022  0.78697437  0.43665333  1
  N  N525  1  0.96715385  0.84897999  0.43134082  1
  O  O526  1  0.54805004  0.81954341  0.33540036  1
  Zn  Zn527  1  0.67220672  0.95032480  0.29886027  1
  C  C528  1  0.82590990  0.93011257  0.30017302  1
  C  C529  1  0.91395738  0.85305631  0.40039184  1
  H  H530  1  0.89386421  0.89580096  0.38578669  1
  O  O531  1  0.80319906  0.94486860  0.35330105  1
  C  C532  1  0.65680937  0.55449398  0.27988261  1
  O  O533  1  0.86288247  0.58265594  0.26158148  1
  O  O534  1  0.77514956  0.57843337  0.46266183  1
  C  C535  1  0.61997245  0.51517278  0.46454330  1
  C  C536  1  0.60965314  0.59353587  0.25906077  1
  N  N537  1  0.53098895  0.71503071  0.48589312  1
  O  O538  1  0.88743511  0.51693617  0.39103905  1
  H  H539  1  0.51742186  0.76042371  0.38992593  1
  O  O540  1  0.69054186  0.82959462  0.48124812  1
  C  C541  1  0.50254500  0.72445033  0.42711361  1
  C  C542  1  0.78402895  0.53440697  0.49904345  1
  C  C543  1  0.74066859  0.81172663  0.49933480  1
  C  C544  1  0.59798870  0.66620658  0.26010343  1
  O  O545  1  0.63532084  0.69966767  0.28019610  1
  C  C546  1  0.93099113  0.96484925  0.52321704  1
  C  C547  1  0.52710071  0.93499876  0.55843603  1
  C  C548  1  0.79973805  0.76414383  0.70811026  1
  C  C549  1  0.93213548  0.86132688  0.69113690  1
  C  C550  1  0.50351229  0.66960954  0.51565322  1
  N  N551  1  0.75511774  0.65411983  0.57814201  1
  C  C552  1  0.53091173  0.63907062  0.57997722  1
  C  C553  1  0.78576757  0.70568676  0.56060161  1
  Zn  Zn554  1  0.53003276  0.95287820  0.74059061  1
  O  O555  1  0.88137790  0.66354257  0.59562194  1
  C  C556  1  0.55270177  0.88056767  0.58052095  1
  O  O557  1  0.51603032  0.58862353  0.60038776  1
  O  O558  1  0.87807377  0.75817660  0.56541189  1
  C  C559  1  0.55884880  0.84663491  0.65366116  1
  O  O560  1  0.88824169  0.88628084  0.66550769  1
  C  C561  1  0.83559624  0.53063297  0.68972438  1
  C  C562  1  0.85228900  0.70893997  0.57643867  1
  Zn  Zn563  1  0.60553530  0.76696107  0.52217518  1
  Zn  Zn564  1  0.77860218  0.59171774  0.64672233  1
  Zn  Zn565  1  0.96667678  0.66820731  0.53912814  1
  C  C566  1  0.69820357  0.66579336  0.55452704  1
  O  O567  1  0.76213668  0.72729093  0.71043053  1
  O  O568  1  0.57326849  0.66331370  0.60533512  1
  O  O569  1  0.77456806  0.82003971  0.67842796  1
  Zn  Zn570  1  0.83405510  0.84224133  0.59540252  1
  N  N571  1  0.57338945  0.85161427  0.52718042  1
  O  O572  1  0.52545304  0.86486610  0.69992496  1
  C  C573  1  0.86699263  0.76460240  0.73027719  1
  O  O574  1  0.97715182  0.93159002  0.53917260  1
  C  C575  1  0.74299308  0.74714232  0.52832227  1
  O  O576  1  0.78892634  0.84313702  0.50355012  1
  O  O577  1  0.59762321  0.81063337  0.66257645  1
  H  H578  1  0.66119059  0.63211923  0.56399335  1
  O  O579  1  0.81585072  0.53433581  0.54825243  1
  N  N580  1  0.68793656  0.72210018  0.53150421  1
  C  C581  1  0.92353457  0.79998573  0.72459952  1
  H  H582  1  0.77895829  0.84579771  0.71887944  1
  O  O583  1  0.98432387  0.88374586  0.68759143  1
  N  N584  1  0.87024471  0.55466883  0.74015473  1
  O  O585  1  0.62116460  0.82461073  0.85265633  1
  O  O586  1  0.66599640  0.53314035  0.93842944  1
  C  C587  1  0.71868975  0.86235107  0.81812853  1
  C  C588  1  0.65825152  0.58306078  0.91381528  1
  O  O589  1  0.91896147  0.83461661  0.87157571  1
  C  C590  1  0.70230827  0.63869353  0.78928354  1
  C  C591  1  0.66686478  0.59259721  0.83729218  1
  O  O592  1  0.64096512  0.62533238  0.94818089  1
  O  O593  1  0.61343858  0.94951544  0.78494517  1
  N  N594  1  0.77217856  0.93665064  0.77179871  1
  C  C595  1  0.71466470  0.56182329  0.79960334  1
  O  O596  1  0.89362621  0.82673805  0.97870864  1
  C  C597  1  0.71598935  0.91957562  0.78415762  1
  C  C598  1  0.93349803  0.73650108  0.77726725  1
  O  O599  1  0.96114662  0.56986129  0.83509851  1
  O  O600  1  0.82666113  0.51564493  0.88996650  1
  C  C601  1  0.67407284  0.81266247  0.85107814  1
  Zn  Zn602  1  0.84471733  0.62923845  0.79915177  1
  C  C603  1  0.80702613  0.89428455  0.80387642  1
  C  C604  1  0.93057579  0.81828592  0.93574813  1
  N  N605  1  0.87633408  0.71737900  0.77594695  1
  C  C606  1  0.80873217  0.69735458  0.92950958  1
  Zn  Zn607  1  0.60919546  0.71446578  0.91118916  1
  C  C608  1  0.82132091  0.53453002  0.94459427  1
  N  N609  1  0.82377430  0.64339985  0.90072376  1
  Zn  Zn610  1  0.80757014  0.77500781  0.87871062  1
  C  C611  1  0.66544474  0.96081481  0.76358244  1
  H  H612  1  0.95130728  0.80825840  0.84631425  1
  C  C613  1  0.94939857  0.51965644  0.81859937  1
  N  N614  1  0.77545519  0.84866961  0.83275165  1
  N  N615  1  0.64732453  0.64636544  0.82056645  1
  O  O616  1  0.68896992  0.76396367  0.87628909  1
  H  H617  1  0.85747696  0.89443586  0.80906452  1
  C  C618  1  0.81576046  0.60648471  0.95317838  1
  O  O619  1  0.50615493  0.68156003  0.79708234  1
  N  N620  1  0.75137275  0.60555126  0.76803282  1
  C  C621  1  0.90621107  0.50840834  0.75705021  1
  N  N622  1  0.97232534  0.77656828  0.75589265  1
  C  C623  1  0.98759939  0.78883187  0.95533903  1
  O  O624  1  0.53511855  0.50462159  0.94715399  1
  N  N625  1  0.79165566  0.69629238  0.99384764  1
  O  O626  1  0.51229022  0.72803493  0.89064362  1
  O  O627  1  0.56721951  0.94820168  0.96851384  1
  N  N628  1  0.72631683  0.94220648  0.99135669  1
  C  C629  1  0.66814895  0.91891104  0.98844474  1
  C  C630  1  0.50775494  0.63825755  0.99757362  1
  C  C631  1  0.61944687  0.95902863  0.97319325  1
