# generated using pymatgen
data_Cu2H12C19O10
_symmetry_space_group_name_H-M   'P 1'
_cell_length_a   17.67343979
_cell_length_b   13.23066920
_cell_length_c   16.95766514
_cell_angle_alpha   90.00000000
_cell_angle_beta   90.00000000
_cell_angle_gamma   90.00000000
_symmetry_Int_Tables_number   1
_chemical_formula_structural   Cu2H12C19O10
_chemical_formula_sum   'Cu12 H72 C114 O60'
_cell_volume   3965.23517971
_cell_formula_units_Z   6
loop_
 _symmetry_equiv_pos_site_id
 _symmetry_equiv_pos_as_xyz
  1  'x, y, z'
loop_
 _atom_site_type_symbol
 _atom_site_label
 _atom_site_symmetry_multiplicity
 _atom_site_fract_x
 _atom_site_fract_y
 _atom_site_fract_z
 _atom_site_occupancy
  O  O0  1  0.36740865  0.46193406  0.08115941  1
  C  C1  1  0.15378776  0.01669842  0.11856843  1
  C  C2  1  0.42772155  0.33388301  0.16228151  1
  H  H3  1  0.11205390  0.48074704  0.03462742  1
  H  H4  1  0.20460216  0.01222169  0.00308391  1
  O  O5  1  0.20333661  0.07505047  0.15644785  1
  H  H6  1  0.03503653  0.27699705  0.21245505  1
  H  H7  1  0.04164922  0.41524912  0.15693298  1
  C  C8  1  0.48562406  0.26197365  0.16773291  1
  O  O9  1  0.09091160  0.44700461  0.14571706  1
  C  C10  1  0.41338917  0.39123605  0.08928418  1
  H  H11  1  0.34822391  0.42393790  0.22517728  1
  C  C12  1  0.38637576  0.35945738  0.22922728  1
  C  C13  1  0.11501902  0.46376401  0.22457679  1
  C  C14  1  0.49531958  0.21205476  0.23833498  1
  C  C15  1  0.19017878  0.09069116  0.24414783  1
  O  O16  1  0.45365683  0.36398943  0.03074075  1
  C  C17  1  0.45258259  0.24157955  0.30220009  1
  O  O18  1  0.19003623  0.11474496  0.40655762  1
  H  H19  1  0.30115258  0.14497006  0.41298274  1
  C  C20  1  0.27539389  0.46009662  0.44532623  1
  H  H21  1  0.22342159  0.41801960  0.44776667  1
  C  C22  1  0.24906804  0.13770925  0.37399288  1
  C  C23  1  0.05197384  0.25927117  0.41100485  1
  C  C24  1  0.10501665  0.41100696  0.36601929  1
  C  C25  1  0.05106310  0.29639195  0.27253554  1
  C  C26  1  0.08700336  0.38753458  0.28801077  1
  H  H27  1  0.13548898  0.48634324  0.37355653  1
  C  C28  1  0.03183372  0.23249594  0.33626405  1
  H  H29  1  0.08213547  0.02302959  0.48264428  1
  H  H30  1  0.27440550  0.42464188  0.31664353  1
  H  H31  1  0.19117355  0.00588879  0.25991253  1
  C  C32  1  0.24910719  0.14594021  0.28997504  1
  C  C33  1  0.08955156  0.34962118  0.43162224  1
  O  O34  1  0.35268992  0.33090135  0.37052913  1
  C  C35  1  0.31218086  0.42627232  0.37069627  1
  H  H36  1  0.30677046  0.11545107  0.27328058  1
  C  C37  1  0.38829154  0.00868234  0.45548275  1
  H  H38  1  0.46515874  0.20496321  0.35805161  1
  C  C39  1  0.39428065  0.30903579  0.30237615  1
  H  H40  1  0.35720237  0.48534599  0.36373340  1
  H  H41  1  0.24956307  0.22942941  0.26939612  1
  O  O42  1  0.42530917  0.06252702  0.49539410  1
  H  H43  1  0.03744568  0.20729035  0.45901917  1
  O  O44  1  0.39118788  0.00857929  0.37941986  1
  H  H45  1  0.13248463  0.11641591  0.26445879  1
  H  H46  1  0.30919206  0.43698951  0.49640264  1
  C  C47  1  0.22227984  0.12330732  0.64110333  1
  H  H48  1  0.12138061  0.23722598  0.55867374  1
  H  H49  1  0.28481771  0.18305290  0.53916720  1
  H  H50  1  0.10983301  0.29361105  0.69921852  1
  O  O51  1  0.22134132  0.45313340  0.69615108  1
  C  C52  1  0.09312926  0.31267897  0.57396355  1
  C  C53  1  0.23432664  0.14516582  0.55837090  1
  C  C54  1  0.19418869  0.38408757  0.65885274  1
  C  C55  1  0.12190202  0.05346028  0.52786853  1
  C  C56  1  0.15645342  0.07766946  0.66754041  1
  O  O57  1  0.34310412  0.18763589  0.66713630  1
  H  H58  1  0.14071228  0.06131509  0.72932500  1
  C  C59  1  0.28707824  0.14994138  0.69502346  1
  C  C60  1  0.10654230  0.04360643  0.61001227  1
  H  H61  1  0.24737076  0.33823402  0.64392723  1
  C  C62  1  0.11779606  0.35349412  0.65133128  1
  H  H63  1  0.02900543  0.30134281  0.56697559  1
  O  O64  1  0.11139079  0.37892745  0.50625876  1
  H  H65  1  0.08145509  0.41940032  0.67244022  1
  C  C66  1  0.18401110  0.10728593  0.50547245  1
  Cu  Cu67  1  0.32200083  0.01462244  0.82361888  1
  H  H68  1  0.17937395  0.44690063  0.85719412  1
  O  O69  1  0.28118464  0.12560091  0.76971420  1
  O  O70  1  0.12602186  0.47514910  0.97853625  1
  Cu  Cu71  1  0.48542007  0.43944185  0.94257319  1
  C  C72  1  0.30566093  0.80346381  0.17193551  1
  C  C73  1  0.41280299  0.90179453  0.06304651  1
  C  C74  1  0.37990389  0.82430314  0.19459329  1
  C  C75  1  0.03606251  0.89058272  0.03615101  1
  C  C76  1  0.17879742  0.74934699  0.21693083  1
  C  C77  1  0.46432464  0.63499969  0.23575882  1
  C  C78  1  0.28742290  0.82521344  0.09337482  1
  O  O79  1  0.15860576  0.53002950  0.23644072  1
  C  C80  1  0.42823217  0.87204180  0.13921962  1
  C  C81  1  0.49968374  0.90368568  0.17325651  1
  H  H82  1  0.45346051  0.93792103  0.02261935  1
  Cu  Cu83  1  0.40187393  0.59287525  0.08777392  1
  O  O84  1  0.40541410  0.60338986  0.19536791  1
  H  H85  1  0.16485468  0.81880698  0.17952350  1
  H  H86  1  0.16556713  0.68075143  0.17871822  1
  C  C87  1  0.03137296  0.91921018  0.11553110  1
  O  O88  1  0.25969058  0.75968092  0.22699162  1
  C  C89  1  0.33825035  0.87784010  0.04327825  1
  H  H90  1  0.23398518  0.79639484  0.07198245  1
  H  H91  1  0.07431785  0.98482774  0.21491979  1
  O  O92  1  0.44493401  0.67512970  0.01754630  1
  C  C93  1  0.15689515  0.98813647  0.03895721  1
  C  C94  1  0.08637212  0.97727411  0.15122473  1
  C  C95  1  0.45186935  0.67049835  0.31737018  1
  C  C96  1  0.27103886  0.89858488  0.45264634  1
  C  C97  1  0.37731518  0.66436362  0.43915762  1
  H  H98  1  0.16687831  0.89160680  0.35000941  1
  C  C99  1  0.16666682  0.80388038  0.35966171  1
  C  C100  1  0.43588153  0.72171553  0.47167170  1
  O  O101  1  0.31831037  0.63312256  0.48359898  1
  C  C102  1  0.25621035  0.56841578  0.44933370  1
  H  H103  1  0.22527219  0.77710210  0.35558050  1
  O  O104  1  0.15338036  0.79980326  0.44185873  1
  C  C105  1  0.38724875  0.64311733  0.35842537  1
  H  H106  1  0.20853706  0.57551086  0.49029668  1
  H  H107  1  0.27668007  0.90811030  0.38842407  1
  H  H108  1  0.06749075  0.77683324  0.27628211  1
  H  H109  1  0.23705522  0.60236964  0.39300461  1
  C  C110  1  0.32368604  0.95204295  0.49397325  1
  H  H111  1  0.11283983  0.66917391  0.30651404  1
  C  C112  1  0.12370282  0.74602032  0.29176732  1
  H  H113  1  0.34475981  0.59848206  0.32693627  1
  C  C114  1  0.20826550  0.84463146  0.48496203  1
  C  C115  1  0.49860907  0.75843199  0.42992661  1
  Cu  Cu116  1  0.48485548  0.98548076  0.32720467  1
  H  H117  1  0.39526720  0.80667476  0.25618752  1
  H  H118  1  0.14309469  0.61525311  0.64412520  1
  C  C119  1  0.20686880  0.84770007  0.56738177  1
  O  O120  1  0.20119030  0.85223775  0.73368811  1
  H  H121  1  0.16360118  0.80832537  0.60082480  1
  C  C122  1  0.26319299  0.89896247  0.60840891  1
  C  C123  1  0.25212701  0.89572391  0.69643280  1
  O  O124  1  0.31041295  0.92670231  0.73150940  1
  C  C125  1  0.32474595  0.95149649  0.57628398  1
  O  O126  1  0.04132409  0.75767191  0.62956990  1
  C  C127  1  0.03554318  0.74095946  0.70283116  1
  C  C128  1  0.12990634  0.60574939  0.70555618  1
  H  H129  1  0.42967223  0.73913225  0.53447991  1
  C  C130  1  0.03239509  0.99319492  0.62567856  1
  O  O131  1  0.00399485  0.99323101  0.69359551  1
  H  H132  1  0.37173861  0.98264355  0.60977375  1
  C  C133  1  0.07606007  0.66388063  0.74830240  1
  C  C134  1  0.16236348  0.52402654  0.74400793  1
  O  O135  1  0.16258457  0.93560316  0.87271870  1
  Cu  Cu136  1  0.02112914  0.92843307  0.78347175  1
  H  H137  1  0.01551290  0.69457817  0.85876681  1
  C  C138  1  0.06017991  0.65002842  0.82781349  1
  O  O139  1  0.25683898  0.82806366  0.94195779  1
  O  O140  1  0.34958623  0.93201494  0.90996560  1
  O  O141  1  0.05002347  0.87290044  0.88124982  1
  C  C142  1  0.31236410  0.88370373  0.96242713  1
  C  C143  1  0.09870885  0.57184300  0.86434942  1
  Cu  Cu144  1  0.22733004  0.83679613  0.83814774  1
  O  O145  1  0.45308780  0.56889941  0.92103407  1
  C  C146  1  0.09790207  0.93464920  0.99965524  1
  C  C147  1  0.10734150  0.91371603  0.91457850  1
  C  C148  1  0.08632777  0.56232680  0.95052038  1
  C  C149  1  0.15063405  0.50827061  0.82310108  1
  C  C150  1  0.48137958  0.64075952  0.95752886  1
  O  O151  1  0.05556842  0.62105908  0.99171404  1
  O  O152  1  0.60364499  0.12501668  0.18654302  1
  C  C153  1  0.79546127  0.29312602  0.07934774  1
  C  C154  1  0.77317488  0.12784639  0.14165271  1
  C  C155  1  0.68312876  0.19494440  0.04180738  1
  C  C156  1  0.74834743  0.20600254  0.08604316  1
  H  H157  1  0.84786427  0.29503687  0.11286914  1
  H  H158  1  0.65002011  0.12948204  0.04524902  1
  O  O159  1  0.83301968  0.13779608  0.18287840  1
  O  O160  1  0.83606332  0.44267148  0.01407037  1
  C  C161  1  0.55786465  0.13595634  0.24282156  1
  Cu  Cu162  1  0.89350301  0.03445955  0.21232702  1
  C  C163  1  0.78450327  0.36890514  0.02379755  1
  O  O164  1  0.73609173  0.04517633  0.14587428  1
  H  H165  1  0.52353262  0.24573638  0.11724920  1
  O  O166  1  0.97108658  0.12444733  0.24445836  1
  O  O167  1  0.96108246  0.08695949  0.36936826  1
  Cu  Cu168  1  0.86910216  0.10578961  0.42030794  1
  C  C169  1  0.98619983  0.14205372  0.31826148  1
  O  O170  1  0.89618969  0.23583166  0.46416545  1
  H  H171  1  0.92617499  0.42190363  0.46111011  1
  O  O172  1  0.56420636  0.08866470  0.30545673  1
  C  C173  1  0.90094523  0.44717564  0.69535453  1
  H  H174  1  0.86716876  0.28834151  0.68453798  1
  C  C175  1  0.91863288  0.42684393  0.52268075  1
  Cu  Cu176  1  0.82654946  0.05529266  0.55489459  1
  C  C177  1  0.89399699  0.34783110  0.57284139  1
  C  C178  1  0.88958254  0.35421556  0.65310106  1
  O  O179  1  0.87172601  0.17910750  0.58740946  1
  C  C180  1  0.88489170  0.24754549  0.53878238  1
  H  H181  1  0.68357818  0.46372510  0.65780949  1
  H  H182  1  0.77665859  0.47888839  0.70282738  1
  H  H183  1  0.81458384  0.43851533  0.89983601  1
  O  O184  1  0.56917141  0.35472112  0.92461244  1
  O  O185  1  0.55044807  0.19844736  0.95517412  1
  H  H186  1  0.69666128  0.42871296  0.95048060  1
  O  O187  1  0.88898929  0.45029427  0.77235424  1
  C  C188  1  0.59242065  0.27178686  0.95559392  1
  C  C189  1  0.66735055  0.28140559  0.99666744  1
  C  C190  1  0.71290767  0.36460562  0.98499247  1
  O  O191  1  0.67415823  0.85605057  0.11033789  1
  O  O192  1  0.92062716  0.82478701  0.11365592  1
  O  O193  1  0.78322466  0.83207672  0.05112541  1
  C  C194  1  0.96290708  0.87827259  0.15468028  1
  Cu  Cu195  1  0.82530618  0.76130783  0.13708129  1
  C  C196  1  0.71129814  0.82370857  0.05317012  1
  O  O197  1  0.87069554  0.68013660  0.21959950  1
  Cu  Cu198  1  0.64076253  0.98972766  0.14489479  1
  O  O199  1  0.52340038  0.65765818  0.20391543  1
  O  O200  1  0.54150337  0.95141792  0.12555174  1
  H  H201  1  0.56813229  0.77564779  0.04976598  1
  O  O202  1  0.94888410  0.90893093  0.22319314  1
  O  O203  1  0.51329935  0.89638889  0.24780442  1
  H  H204  1  0.99440345  0.84244260  0.00349721  1
  C  C205  1  0.59686249  0.73572562  0.00038482  1
  C  C206  1  0.80069229  0.80308622  0.42976542  1
  C  C207  1  0.55988329  0.81626744  0.47249635  1
  C  C208  1  0.76896067  0.74303620  0.49067498  1
  H  H209  1  0.78303588  0.51578169  0.39935337  1
  C  C210  1  0.81566903  0.65961328  0.34657247  1
  C  C211  1  0.81853361  0.76445543  0.35521022  1
  H  H212  1  0.84116445  0.81906369  0.31180025  1
  C  C213  1  0.78768244  0.59600125  0.40853871  1
  H  H214  1  0.56100514  0.75594550  0.31598111  1
  O  O215  1  0.83214101  0.52730346  0.25852503  1
  C  C216  1  0.84042134  0.61461584  0.27155540  1
  O  O217  1  0.83653328  0.97377036  0.39357289  1
  O  O218  1  0.62257236  0.84053427  0.42410321  1
  O  O219  1  0.97060338  0.61296360  0.45163442  1
  C  C220  1  0.80909321  0.91347818  0.44315592  1
  C  C221  1  0.50955022  0.73003478  0.34941095  1
  C  C222  1  0.76404318  0.64006833  0.47824345  1
  H  H223  1  0.65242189  0.87730746  0.45730253  1
  H  H224  1  0.75584921  0.77957299  0.54646820  1
  O  O225  1  0.78441507  0.94672052  0.50759590  1
  Cu  Cu226  1  0.97178548  0.81923406  0.56445680  1
  H  H227  1  0.92009317  0.60819635  0.66911064  1
  C  C228  1  0.91736517  0.52918816  0.64525797  1
  H  H229  1  0.78343024  0.66007795  0.62689463  1
  H  H230  1  0.64164890  0.62142183  0.72595260  1
  C  C231  1  0.74832787  0.58750205  0.61900715  1
  C  C232  1  0.72541031  0.52163339  0.67998350  1
  O  O233  1  0.73347428  0.56699986  0.55054433  1
  O  O234  1  0.92366309  0.69931818  0.55146820  1
  C  C235  1  0.94386169  0.61370573  0.51820078  1
  C  C236  1  0.92218593  0.51644969  0.56409243  1
  O  O237  1  0.99801852  0.95281875  0.56869632  1
  O  O238  1  0.56222131  0.83949288  0.54020255  1
  C  C239  1  0.68920860  0.57128125  0.74871650  1
  O  O240  1  0.99252271  0.79467595  0.74403326  1
  H  H241  1  0.77726568  0.74564704  0.91964729  1
  O  O242  1  0.72495245  0.63637199  0.81113482  1
  C  C243  1  0.68368741  0.66209418  0.87527016  1
  C  C244  1  0.89311266  0.55617617  0.90033404  1
  C  C245  1  0.71760956  0.72717978  0.92989621  1
  C  C246  1  0.60771274  0.63172418  0.88651320  1
  H  H247  1  0.95031569  0.52576972  0.91627216  1
  C  C248  1  0.89824421  0.55641187  0.81472633  1
  C  C249  1  0.56172783  0.66951830  0.94722514  1
  H  H250  1  0.58093105  0.58749636  0.83929276  1
  H  H251  1  0.88991863  0.63764578  0.91815741  1
  H  H252  1  0.84682729  0.59318564  0.78045219  1
  H  H253  1  0.77851116  0.55299232  0.95240681  1
  H  H254  1  0.94892710  0.59485353  0.79569672  1
  C  C255  1  0.67228740  0.76257753  0.99212610  1
  C  C256  1  0.82969850  0.50137453  0.93938225  1
  H  H257  1  0.66231885  0.51122625  0.78867067  1
