# generated using pymatgen
data_Zn2H13C26(N3O5)2
_symmetry_space_group_name_H-M   'P 1'
_cell_length_a   34.68908425
_cell_length_b   10.79974353
_cell_length_c   18.38622431
_cell_angle_alpha   90.00000000
_cell_angle_beta   90.00000000
_cell_angle_gamma   90.00000000
_symmetry_Int_Tables_number   1
_chemical_formula_structural   Zn2H13C26(N3O5)2
_chemical_formula_sum   'Zn16 H104 C208 N48 O80'
_cell_volume   6888.09029140
_cell_formula_units_Z   8
loop_
 _symmetry_equiv_pos_site_id
 _symmetry_equiv_pos_as_xyz
  1  'x, y, z'
loop_
 _atom_site_type_symbol
 _atom_site_label
 _atom_site_symmetry_multiplicity
 _atom_site_fract_x
 _atom_site_fract_y
 _atom_site_fract_z
 _atom_site_occupancy
  C  C0  1  0.20308815  0.37331422  0.04446648  1
  C  C1  1  0.03883278  0.14695980  0.38190255  1
  C  C2  1  0.14201818  0.19431828  0.22212027  1
  C  C3  1  0.15025200  0.24359269  0.08829018  1
  N  N4  1  0.22899884  0.08897192  0.33668720  1
  O  O5  1  0.15111969  0.20240850  0.28479146  1
  C  C6  1  0.21739487  0.37105185  0.11839922  1
  H  H7  1  0.20556797  0.33193849  0.23577714  1
  C  C8  1  0.04545979  0.22028586  0.44421266  1
  C  C9  1  0.05484155  0.46274292  0.11988735  1
  C  C10  1  0.16991015  0.30978330  0.03352321  1
  C  C11  1  0.19650430  0.32064716  0.17807078  1
  O  O12  1  0.11559447  0.11385323  0.20182364  1
  H  H13  1  0.07525168  0.26042569  0.45102915  1
  H  H14  1  0.06260625  0.11116485  0.34650163  1
  O  O15  1  0.12564221  0.11853816  0.44642393  1
  C  C16  1  0.05398973  0.33816202  0.12694437  1
  C  C17  1  0.16327675  0.25423876  0.16044387  1
  H  H18  1  0.12393877  0.18692885  0.07532605  1
  H  H19  1  0.02176857  0.37970128  0.32831662  1
  C  C20  1  0.24726205  0.18205612  0.30587012  1
  H  H21  1  0.08062970  0.28445741  0.12217137  1
  C  C22  1  0.00147181  0.09799479  0.36996553  1
  C  C23  1  0.23581822  0.48274219  0.40038150  1
  C  C24  1  0.01821451  0.28880391  0.15496903  1
  C  C25  1  0.09861251  0.00965812  0.25715922  1
  Zn  Zn26  1  0.16881199  0.06127771  0.37070741  1
  N  N27  1  0.01534964  0.16761564  0.16888610  1
  C  C28  1  0.20559315  0.48712410  0.44877434  1
  H  H29  1  0.01985541  0.02052273  0.27384768  1
  H  H30  1  0.03364593  0.09791057  0.15709348  1
  C  C31  1  0.01538939  0.25117699  0.48829884  1
  O  O32  1  0.19682549  0.00765612  0.14763699  1
  H  H33  1  0.21711874  0.42700728  0.00156235  1
  O  O34  1  0.18996289  0.47763537  0.57697817  1
  O  O35  1  0.11954097  0.26400850  0.94771087  1
  O  O36  1  0.05837536  0.37067911  0.55949638  1
  C  C37  1  0.24171064  0.09734824  0.66879764  1
  C  C38  1  0.09759963  0.04995478  0.63070366  1
  C  C39  1  0.09836022  0.04778440  0.55527611  1
  O  O40  1  0.17238966  0.35946100  0.90695467  1
  O  O41  1  0.21105791  0.11824159  0.70096294  1
  C  C42  1  0.15192802  0.31186007  0.95375097  1
  C  C43  1  0.21500598  0.45922321  0.53066024  1
  O  O44  1  0.24672931  0.42249543  0.54510849  1
  O  O45  1  0.15384425  0.17072434  0.54958576  1
  H  H46  1  0.12086324  0.09667464  0.66275363  1
  C  C47  1  0.02479957  0.34859682  0.54929611  1
  H  H48  1  0.24533276  0.25552678  0.78162476  1
  O  O49  1  0.24250174  0.03760778  0.61238162  1
  C  C50  1  0.12956496  0.11483510  0.51729189  1
  O  O51  1  0.08926836  0.04757254  0.78030823  1
  N  N52  1  0.06873849  0.80225137  0.33775124  1
  C  C53  1  0.02291630  0.67064800  0.10847759  1
  C  C54  1  0.06335357  0.86551285  0.27558600  1
  H  H55  1  0.24765224  0.80896466  0.36030646  1
  O  O56  1  0.05390142  0.71161992  0.08730884  1
  N  N57  1  0.01215703  0.57702216  0.40339015  1
  C  C58  1  0.09555634  0.88651860  0.34432822  1
  C  C59  1  0.19533960  0.82266498  0.46364723  1
  O  O60  1  0.18354971  0.85635390  0.40178367  1
  C  C61  1  0.23214907  0.76910650  0.02004369  1
  H  H62  1  0.04063107  0.54764926  0.39655693  1
  C  C63  1  0.23815812  0.79045100  0.47299407  1
  C  C64  1  0.19809600  0.95063320  0.08933527  1
  O  O65  1  0.17739821  0.97553478  0.03837542  1
  C  C66  1  0.22846130  0.84436752  0.07946637  1
  Zn  Zn67  1  0.01969826  0.75994716  0.41016425  1
  H  H68  1  0.14531358  0.50839121  0.47453579  1
  H  H69  1  0.24594224  0.59656962  0.23420538  1
  C  C70  1  0.02047174  0.53258796  0.13039990  1
  O  O71  1  0.09214837  0.51752410  0.38047839  1
  N  N72  1  0.06995993  0.94802724  0.22804028  1
  N  N73  1  0.11451236  0.98230646  0.32399741  1
  C  C74  1  0.11751585  0.51765982  0.33213038  1
  H  H75  1  0.07701901  0.97776198  0.45009385  1
  O  O76  1  0.10825578  0.53015660  0.26843814  1
  H  H77  1  0.24984998  0.88959584  0.18494138  1
  H  H78  1  0.08134377  0.50931571  0.10243363  1
  C  C79  1  0.15945056  0.51350744  0.35866534  1
  H  H80  1  0.17851579  0.52637498  0.24679608  1
  C  C81  1  0.16712099  0.50700827  0.43324013  1
  C  C82  1  0.18693376  0.51407117  0.30437063  1
  C  C83  1  0.22614848  0.50569334  0.32471416  1
  H  H84  1  0.01806794  0.86418757  0.65082455  1
  O  O85  1  0.23416642  0.63400519  0.89613729  1
  O  O86  1  0.17706548  0.82994402  0.51984465  1
  H  H87  1  0.23219096  0.75445294  0.58936766  1
  C  C88  1  0.04262235  0.91682533  0.54443492  1
  C  C89  1  0.04060793  0.92021166  0.62301749  1
  H  H90  1  0.21222285  0.79401581  0.97417338  1
  N  N91  1  0.01579840  0.84771153  0.50738786  1
  O  O92  1  0.03553509  0.94958200  0.77923331  1
  C  C93  1  0.06669792  0.99017748  0.66313858  1
  C  C94  1  0.06236710  0.99636065  0.74929071  1
  C  C95  1  0.07215393  0.98545338  0.50844919  1
  O  O96  1  0.36282494  0.04448653  0.28139043  1
  C  C97  1  0.38126272  0.18955225  0.36332659  1
  C  C98  1  0.39113528  0.35666416  0.44325578  1
  O  O99  1  0.48218121  0.48624176  0.05590815  1
  C  C100  1  0.36707212  0.43178077  0.40495589  1
  N  N101  1  0.27389080  0.22793067  0.26122720  1
  C  C102  1  0.38497061  0.06218294  0.33289719  1
  H  H103  1  0.35340640  0.48281796  0.23386063  1
  C  C104  1  0.37215164  0.41637908  0.13312551  1
  C  C105  1  0.36239488  0.26675742  0.31292401  1
  C  C106  1  0.40078636  0.23788370  0.42425572  1
  C  C107  1  0.35557480  0.38880302  0.33464112  1
  H  H108  1  0.41819648  0.17373607  0.45891327  1
  H  H109  1  0.26595034  0.47574767  0.42088951  1
  N  N110  1  0.33700299  0.45485032  0.27669884  1
  H  H111  1  0.27129388  0.44722227  0.09329261  1
  H  H112  1  0.35128903  0.22736330  0.25852784  1
  N  N113  1  0.33582253  0.37900297  0.12881932  1
  C  C114  1  0.34309204  0.42032460  0.06269556  1
  C  C115  1  0.47082667  0.24090158  0.20602485  1
  N  N116  1  0.40595550  0.45444923  0.10986211  1
  Zn  Zn117  1  0.28724410  0.40184306  0.21493178  1
  O  O118  1  0.44250519  0.20635782  0.17361463  1
  O  O119  1  0.47825821  0.35621220  0.21845544  1
  C  C120  1  0.39914659  0.47521651  0.03870135  1
  C  C121  1  0.28432889  0.11482501  0.24153688  1
  N  N122  1  0.25088342  0.42776204  0.13094888  1
  C  C123  1  0.25361600  0.02185104  0.29737264  1
  N  N124  1  0.36362812  0.46247359  0.00873173  1
  C  C125  1  0.49002939  0.02142552  0.23642034  1
  C  C126  1  0.49940986  0.14644267  0.23469503  1
  H  H127  1  0.32541148  0.01782450  0.05088606  1
  C  C128  1  0.27491577  0.22686925  0.75738250  1
  H  H129  1  0.40335165  0.38103078  0.90104535  1
  H  H130  1  0.49310295  0.09771049  0.98050182  1
  H  H131  1  0.47492737  0.39223869  0.84722000  1
  C  C132  1  0.30864847  0.28382108  0.78843467  1
  O  O133  1  0.42036298  0.14863192  0.71788834  1
  N  N134  1  0.45007897  0.23132089  0.92548044  1
  C  C135  1  0.27604251  0.04956336  0.93165005  1
  H  H136  1  0.28001118  0.40495967  0.86005165  1
  C  C137  1  0.31697106  0.10949160  0.67704092  1
  C  C138  1  0.39041008  0.11156761  0.68907411  1
  N  N139  1  0.39250206  0.40511257  0.85306073  1
  H  H140  1  0.47030692  0.10747988  0.70134338  1
  C  C141  1  0.34922419  0.15100652  0.71550296  1
  H  H142  1  0.48663096  0.32830815  0.68239726  1
  N  N143  1  0.49653664  0.08841613  0.68363593  1
  C  C144  1  0.28095558  0.14647642  0.70211607  1
  C  C145  1  0.43787071  0.03160375  0.87247044  1
  N  N146  1  0.47068490  0.06968600  0.84327857  1
  C  C147  1  0.34593122  0.23398593  0.77231927  1
  H  H148  1  0.37269505  0.26190126  0.80148605  1
  C  C149  1  0.45854345  0.44925897  0.80460862  1
  Zn  Zn150  1  0.34620714  0.47969489  0.89491717  1
  N  N151  1  0.30554269  0.36677302  0.84052148  1
  C  C152  1  0.42545384  0.14319190  0.93150950  1
  C  C153  1  0.41685587  0.44293073  0.79875586  1
  H  H154  1  0.36709017  0.46924646  0.72929291  1
  O  O155  1  0.39021188  0.02727844  0.64638413  1
  O  O156  1  0.42730484  0.36029364  0.55456037  1
  O  O157  1  0.27433557  0.13932621  0.97043699  1
  C  C158  1  0.47466523  0.18149181  0.87928145  1
  C  C159  1  0.40710053  0.41981607  0.51361930  1
  C  C160  1  0.39669175  0.49746630  0.73803229  1
  O  O161  1  0.27439156  0.49950055  0.93724819  1
  H  H162  1  0.31913567  0.03542734  0.63132405  1
  O  O163  1  0.26067842  0.04244211  0.87163288  1
  N  N164  1  0.41022035  0.03735253  0.91708134  1
  C  C165  1  0.30090393  0.77186452  0.42164998  1
  H  H166  1  0.35192116  0.73201138  0.35390506  1
  C  C167  1  0.28421979  0.65764215  0.07328951  1
  C  C168  1  0.32765674  0.94369242  0.01229965  1
  C  C169  1  0.31739114  0.74580308  0.49112521  1
  Zn  Zn170  1  0.30743022  0.61151346  0.28106948  1
  C  C171  1  0.26056563  0.78962262  0.41140132  1
  N  N172  1  0.31009501  0.72857973  0.19416728  1
  C  C173  1  0.41234594  0.84765821  0.31483470  1
  C  C174  1  0.37304339  0.85119449  0.09998496  1
  O  O175  1  0.36889881  0.94195637  0.13575844  1
  O  O176  1  0.39330564  0.74547699  0.12901563  1
  N  N177  1  0.42616779  0.65227923  0.22583275  1
  Zn  Zn178  1  0.32781799  0.86733861  0.26730212  1
  C  C179  1  0.40370262  0.74464909  0.20020527  1
  N  N180  1  0.32258473  0.74504161  0.35727806  1
  C  C181  1  0.43512272  0.70362879  0.28767731  1
  N  N182  1  0.43651242  0.77615934  0.34363767  1
  N  N183  1  0.28246836  0.99549291  0.24888082  1
  N  N184  1  0.38895056  0.83224501  0.25199165  1
  H  H185  1  0.33706454  0.70950013  0.17727777  1
  O  O186  1  0.49748296  0.83663318  0.11724625  1
  O  O187  1  0.45894880  0.95222610  0.05105006  1
  C  C188  1  0.28194487  0.73791892  0.13531070  1
  C  C189  1  0.48923258  0.90520044  0.06611513  1
  H  H190  1  0.37274605  0.65891099  0.00112943  1
  H  H191  1  0.30558236  0.58291476  0.07243440  1
  O  O192  1  0.40852619  0.97609256  0.35435331  1
  H  H193  1  0.46216504  0.98556132  0.21862304  1
  C  C194  1  0.35340701  0.84109522  0.02921238  1
  H  H195  1  0.35961239  0.52551801  0.42055472  1
  C  C196  1  0.25908891  0.67029257  0.01720420  1
  C  C197  1  0.46808141  0.53717374  0.00245013  1
  C  C198  1  0.25292259  0.82536591  0.13839430  1
  Zn  Zn199  1  0.45740011  0.50627249  0.16604200  1
  N  N200  1  0.25442937  0.53361322  0.27224700  1
  C  C201  1  0.49685455  0.60685328  0.95707355  1
  O  O202  1  0.43126738  0.53164682  0.98724894  1
  C  C203  1  0.29235483  0.75346917  0.55006153  1
  C  C204  1  0.25510802  0.59467875  0.94337137  1
  H  H205  1  0.29302232  0.84247126  0.84979451  1
  C  C206  1  0.30649634  0.71618090  0.63436351  1
  C  C207  1  0.35827205  0.74080464  0.98394775  1
  C  C208  1  0.30956719  0.84509332  0.90077613  1
  N  N209  1  0.33503459  0.65091492  0.87371752  1
  O  O210  1  0.33824143  0.66433917  0.64056049  1
  H  H211  1  0.31908800  0.64432227  0.82476477  1
  C  C212  1  0.47603541  0.67442022  0.65503794  1
  O  O213  1  0.45966533  0.74564908  0.61531462  1
  C  C214  1  0.33575428  0.74822871  0.91815275  1
  O  O215  1  0.28353395  0.73118572  0.68485443  1
  C  C216  1  0.45567466  0.58741016  0.70289731  1
  H  H217  1  0.45215498  0.65798783  0.88155079  1
  C  C218  1  0.30756066  0.93996420  0.94971117  1
  C  C219  1  0.48324407  0.66120704  0.89353968  1
  H  H220  1  0.46779208  0.83127424  0.79437089  1
  C  C221  1  0.25241624  0.76533742  0.54351016  1
  O  O222  1  0.39285240  0.52180494  0.52578169  1
  H  H223  1  0.40033140  0.61941745  0.64582833  1
  N  N224  1  0.49717284  0.81026109  0.80261336  1
  C  C225  1  0.47689078  0.53048957  0.75893611  1
  H  H226  1  0.34905096  0.72642182  0.50025333  1
  C  C227  1  0.41561450  0.57528754  0.69058467  1
  H  H228  1  0.69186305  0.25457589  0.22371504  1
  H  H229  1  0.59108173  0.14650519  0.29363774  1
  H  H230  1  0.71696371  0.24653270  0.07614308  1
  C  C231  1  0.56245270  0.11177168  0.28112034  1
  C  C232  1  0.61653018  0.29132634  0.18597764  1
  O  O233  1  0.58286329  0.33505626  0.17448681  1
  C  C234  1  0.53471537  0.19707270  0.26048007  1
  C  C235  1  0.72143585  0.15817584  0.10801495  1
  C  C236  1  0.70066850  0.42598399  0.29191098  1
  H  H237  1  0.53986395  0.29737507  0.25639815  1
  C  C238  1  0.64322554  0.37520025  0.23275641  1
  C  C239  1  0.68090140  0.34205861  0.24663223  1
  C  C240  1  0.74421871  0.37819338  0.30619296  1
  O  O241  1  0.62601594  0.18707912  0.16763726  1
  C  C242  1  0.69441180  0.06352667  0.11591472  1
  H  H243  1  0.73029418  0.02166700  0.29834166  1
  H  H244  1  0.66699290  0.08249918  0.08757972  1
  C  C245  1  0.62674681  0.48692407  0.25183300  1
  H  H246  1  0.67062246  0.00995064  0.25938866  1
  O  O247  1  0.50885797  0.47925116  0.35838652  1
  O  O248  1  0.61519832  0.37765320  0.48525386  1
  H  H249  1  0.61378634  0.08034806  0.91830882  1
  C  C250  1  0.54958133  0.21067877  0.89141915  1
  O  O251  1  0.57772031  0.26033904  0.86899103  1
  C  C252  1  0.51894086  0.16317212  0.64399836  1
  C  C253  1  0.57512503  0.19233033  0.57028680  1
  C  C254  1  0.53592058  0.37572803  0.61211597  1
  H  H255  1  0.59890192  0.16056152  0.53343437  1
  H  H256  1  0.55522072  0.01360831  0.60710091  1
  H  H257  1  0.53120805  0.47648219  0.60458508  1
  C  C258  1  0.56647874  0.31891553  0.57374020  1
  O  O259  1  0.68162077  0.10732589  0.91252907  1
  H  H260  1  0.56370112  0.10074407  0.75656412  1
  C  C261  1  0.55128650  0.11302079  0.60663448  1
  C  C262  1  0.59529695  0.40806682  0.53492846  1
  O  O263  1  0.51459161  0.25148443  0.86636096  1
  C  C264  1  0.55375902  0.10024756  0.94257889  1
  H  H265  1  0.62571600  0.10709573  0.83021410  1
  C  C266  1  0.58916829  0.04609995  0.94970293  1
  N  N267  1  0.56790660  0.01072986  0.74967026  1
  C  C268  1  0.62896277  0.01140556  0.81361400  1
  C  C269  1  0.52164626  0.05555909  0.98266377  1
  C  C270  1  0.51132302  0.29490233  0.64883610  1
  C  C271  1  0.69185484  0.00836935  0.89071691  1
  H  H272  1  0.51393108  0.83363526  0.26127930  1
  C  C273  1  0.73977653  0.92121412  0.18896421  1
  N  N274  1  0.59803381  0.75378652  0.16065314  1
  Zn  Zn275  1  0.57959447  0.73276085  0.34513813  1
  H  H276  1  0.54829364  0.56022219  0.02022046  1
  N  N277  1  0.63196428  0.68835428  0.31082271  1
  O  O278  1  0.69464855  0.67274355  0.06516532  1
  H  H279  1  0.68724649  0.76705836  0.17588038  1
  Zn  Zn280  1  0.63210496  0.84139992  0.24302690  1
  N  N281  1  0.54090879  0.63430237  0.28690240  1
  C  C282  1  0.57325910  0.67984848  0.16675962  1
  N  N283  1  0.67558455  0.85361168  0.16560258  1
  O  O284  1  0.72398821  0.57844066  0.15604704  1
  H  H285  1  0.56261688  0.82043497  0.08306845  1
  H  H286  1  0.70460233  0.59379495  0.35029613  1
  C  C287  1  0.66995735  0.89052358  0.42931995  1
  H  H288  1  0.59977161  0.92866917  0.35051855  1
  N  N289  1  0.54365379  0.61357465  0.15106429  1
  H  H290  1  0.64605757  0.73589308  0.35457810  1
  C  C291  1  0.64743696  0.57236184  0.29497246  1
  C  C292  1  0.68218853  0.94099972  0.36145730  1
  N  N293  1  0.58342894  0.89676972  0.30410695  1
  Zn  Zn294  1  0.64470545  0.77676030  0.08857249  1
  C  C295  1  0.72467246  0.64743480  0.10432241  1
  N  N296  1  0.56720668  0.79892487  0.44837792  1
  C  C297  1  0.68564994  0.53244109  0.31675808  1
  C  C298  1  0.53576236  0.59675571  0.21923179  1
  C  C299  1  0.51763010  0.93527095  0.26150619  1
  H  H300  1  0.63914934  0.86907002  0.44105062  1
  N  N301  1  0.62669132  0.89329725  0.01692259  1
  C  C302  1  0.70305909  0.95126412  0.15770101  1
  C  C303  1  0.73554594  0.88506919  0.46998496  1
  C  C304  1  0.56061256  0.89698825  0.04016536  1
  C  C305  1  0.51876453  0.54181058  0.30991612  1
  C  C306  1  0.72181332  0.97910540  0.35248414  1
  C  C307  1  0.55334210  0.98358889  0.27973372  1
  C  C308  1  0.69726499  0.85552919  0.48035069  1
  C  C309  1  0.52626436  0.95466507  0.02563261  1
  N  N310  1  0.65922380  0.96241157  0.30437869  1
  C  C311  1  0.74704299  0.94935584  0.40605365  1
  O  O312  1  0.61066207  0.63058490  0.02475529  1
  C  C313  1  0.53355470  0.80885023  0.48629424  1
  H  H314  1  0.74683388  0.83885956  0.22269688  1
  H  H315  1  0.59703858  0.50881442  0.23995541  1
  H  H316  1  0.73815925  0.80636450  0.00267695  1
  O  O317  1  0.59440991  0.52238355  0.55288988  1
  C  C318  1  0.53375133  0.74830012  0.59037267  1
  H  H319  1  0.68730288  0.76553642  0.83112621  1
  C  C320  1  0.60489321  0.65108227  0.95878908  1
  C  C321  1  0.60037749  0.95126169  0.76731285  1
  C  C322  1  0.66023653  0.94490307  0.83345905  1
  H  H323  1  0.50787538  0.55105494  0.77062412  1
  C  C324  1  0.64283813  0.77035277  0.75109908  1
  C  C325  1  0.65999150  0.64202386  0.73434634  1
  C  C326  1  0.53608402  0.61240739  0.97428140  1
  C  C327  1  0.56164970  0.67479284  0.92857541  1
  O  O328  1  0.70808955  0.76033700  0.59641661  1
  C  C329  1  0.55165690  0.73897500  0.86883917  1
  H  H330  1  0.57176459  0.78171203  0.83000730  1
  C  C331  1  0.57721536  0.77429201  0.51611474  1
  C  C332  1  0.60905814  0.83722291  0.73115416  1
  O  O333  1  0.64900228  0.76737232  0.55867547  1
  N  N334  1  0.57314401  0.74397824  0.58486842  1
  C  C335  1  0.66484698  0.82417811  0.81018282  1
  H  H336  1  0.58836174  0.79924784  0.68927680  1
  O  O337  1  0.72171157  0.95394764  0.90107975  1
  O  O338  1  0.51355851  0.65910774  0.64910214  1
  C  C339  1  0.51029771  0.73365518  0.85496647  1
  C  C340  1  0.68423862  0.78589574  0.55281212  1
  Zn  Zn341  1  0.62196066  0.62052914  0.64467918  1
  N  N342  1  0.51086431  0.79614249  0.53980064  1
  O  O343  1  0.62887606  0.67797813  0.91578257  1
  O  O344  1  0.68423344  0.57314748  0.75401327  1
  Zn  Zn345  1  0.51442227  0.97119558  0.77507428  1
  C  C346  1  0.59257808  0.94399023  0.99915851  1
  H  H347  1  0.65161390  0.92316697  0.99542383  1
  H  H348  1  0.97448232  0.24543662  0.00223356  1
  C  C349  1  0.92401668  0.26446925  0.07425227  1
  Zn  Zn350  1  0.96576570  0.06879674  0.16008468  1
  H  H351  1  0.96911525  0.24477413  0.28618521  1
  H  H352  1  0.90285151  0.11528366  0.12891621  1
  N  N353  1  0.99500614  0.03887557  0.30216683  1
  O  O354  1  0.76697666  0.44021871  0.34032164  1
  O  O355  1  0.89565822  0.18104104  0.27637619  1
  O  O356  1  0.79622770  0.03007789  0.33308367  1
  H  H357  1  0.95940824  0.31044207  0.18899240  1
  C  C358  1  0.92302592  0.36160569  0.33763478  1
  O  O359  1  0.85790966  0.31555455  0.32782088  1
  C  C360  1  0.98527050  0.35798216  0.17026904  1
  N  N361  1  0.92558922  0.14701656  0.09838511  1
  C  C362  1  0.95244640  0.30964872  0.02249334  1
  O  O363  1  0.82090340  0.19152120  0.16689232  1
  O  O364  1  0.75334723  0.26938224  0.28393875  1
  O  O365  1  0.79061323  0.29740705  0.08486868  1
  C  C366  1  0.96095945  0.32975718  0.31947747  1
  H  H367  1  0.87085530  0.29650055  0.13333692  1
  C  C368  1  0.79158394  0.21221637  0.12706387  1
  C  C369  1  0.97138221  0.13620788  0.41731281  1
  Zn  Zn370  1  0.81132637  0.21001101  0.29033481  1
  C  C371  1  0.89055466  0.33580199  0.09570531  1
  C  C372  1  0.97729031  0.20962992  0.47685512  1
  C  C373  1  0.91523762  0.47444100  0.37435640  1
  H  H374  1  0.94063638  0.11464131  0.40673949  1
  C  C375  1  0.89274089  0.27472325  0.31309199  1
  C  C376  1  0.99087900  0.39927490  0.34126653  1
  C  C377  1  0.75763685  0.12410561  0.13612036  1
  C  C378  1  0.89287859  0.46055712  0.08065328  1
  H  H379  1  0.88536528  0.49954125  0.38365243  1
  C  C380  1  0.98613201  0.48362707  0.15705705  1
  H  H381  1  0.79476916  0.00943626  0.20302231  1
  C  C382  1  0.76533225  0.01249723  0.17623721  1
  C  C383  1  0.95155213  0.43303182  0.00205274  1
  H  H384  1  0.82020679  0.36224336  0.95368485  1
  C  C385  1  0.92034966  0.32400907  0.86137638  1
  C  C386  1  0.92469906  0.04541932  0.69816451  1
  O  O387  1  0.92381846  0.26721632  0.66923021  1
  C  C388  1  0.90170502  0.43555375  0.85474457  1
  C  C389  1  0.94144068  0.16204158  0.66209650  1
  H  H390  1  0.92626010  0.13952545  0.90103132  1
  N  N391  1  0.85426421  0.13882710  0.96255633  1
  C  C392  1  0.90720289  0.22145326  0.89763852  1
  O  O393  1  0.97635268  0.21291593  0.84860808  1
  Zn  Zn394  1  0.96416888  0.40903456  0.67768103  1
  C  C395  1  0.96105791  0.30813139  0.82909898  1
  C  C396  1  0.89849937  0.04378610  0.75285966  1
  H  H397  1  0.88986271  0.12976423  0.78298890  1
  C  C398  1  0.87096755  0.23882137  0.93235314  1
  C  C399  1  0.84906160  0.35055528  0.92685682  1
  O  O400  1  0.97212952  0.15333729  0.63185595  1
  C  C401  1  0.86473957  0.44690503  0.88692116  1
  O  O402  1  0.97801479  0.38987442  0.79190718  1
  H  H403  1  0.95423169  0.24421323  0.51461654  1
  O  O404  1  0.99716747  0.41018615  0.57302302  1
  H  H405  1  0.82767170  0.14254597  0.99158187  1
  H  H406  1  0.97273749  0.46765109  0.96470326  1
  C  C407  1  0.79272892  0.70192517  0.14366939  1
  C  C408  1  0.94378011  0.55003660  0.39942151  1
  H  H409  1  0.78964347  0.64309851  0.19556096  1
  C  C410  1  0.82964845  0.86320970  0.07567068  1
  H  H411  1  0.86990227  0.52710795  0.10271374  1
  N  N412  1  0.91007636  0.76729508  0.29296724  1
  C  C413  1  0.82515315  0.77964518  0.13393705  1
  C  C414  1  0.98208545  0.51620157  0.37871143  1
  O  O415  1  0.99394405  0.73344924  0.11392608  1
  H  H416  1  0.85404943  0.92156340  0.06371678  1
  C  C417  1  0.93620546  0.79960374  0.33438741  1
  O  O418  1  0.88877637  0.84934486  0.18494673  1
  C  C419  1  0.76250515  0.71435913  0.09648732  1
  C  C420  1  0.76330344  0.79749126  0.03755902  1
  C  C421  1  0.91435363  0.84666175  0.23756527  1
  H  H422  1  0.96138201  0.54468954  0.16432104  1
  O  O423  1  0.81028520  0.99855706  0.44743603  1
  N  N424  1  0.96716762  0.85382555  0.36166497  1
  O  O425  1  0.84806035  0.70266040  0.24187978  1
  C  C426  1  0.85378095  0.76469228  0.19077357  1
  C  C427  1  0.96637122  0.92956948  0.30367389  1
  C  C428  1  0.92281685  0.50299986  0.03424621  1
  H  H429  1  0.93623402  0.63558894  0.42849830  1
  C  C430  1  0.79791564  0.86445519  0.02634653  1
  N  N431  1  0.94669441  0.92923083  0.23683711  1
  C  C432  1  0.78829551  0.99420642  0.39628795  1
  O  O433  1  0.89668243  0.70884928  0.03423887  1
  C  C434  1  0.92316870  0.64167922  0.01036677  1
  H  H435  1  0.84430161  0.82567006  0.83051329  1
  O  O436  1  0.94639378  0.68235882  0.96591522  1
  C  C437  1  0.89925815  0.81131158  0.74494330  1
  C  C438  1  0.88658293  0.92320440  0.77469964  1
  C  C439  1  0.94288083  0.70454278  0.65208442  1
  C  C440  1  0.92751183  0.81823417  0.69130949  1
  O  O441  1  0.93097893  0.59705494  0.66961005  1
  O  O442  1  0.81461106  0.57089255  0.92400216  1
  H  H443  1  0.88818136  0.71908803  0.75619752  1
  O  O444  1  0.85220048  0.65790056  0.84495870  1
  H  H445  1  0.78003494  0.96171429  0.93219080  1
  C  C446  1  0.84259692  0.56671735  0.88363205  1
  O  O447  1  0.96457745  0.73067238  0.60336985  1
  H  H448  1  0.76013032  0.86121535  0.50928373  1
  N  N449  1  0.85550404  0.91105135  0.81923806  1
  C  C450  1  0.93742728  0.93543155  0.66565827  1
  N  N451  1  0.79952797  0.94864393  0.97186241  1
  H  H452  1  0.99576561  0.79234366  0.53326803  1
  Zn  Zn453  1  0.84342008  0.98979044  0.91256545  1
  H  H454  1  0.95953364  0.95396928  0.62206761  1
  H  H455  1  0.91781535  0.51644797  0.83207922  1
