# generated using pymatgen
data_Cu3H34C48(NO6)2
_symmetry_space_group_name_H-M   'P 1'
_cell_length_a   8.89218032
_cell_length_b   19.99258477
_cell_length_c   25.86482254
_cell_angle_alpha   90.00000000
_cell_angle_beta   90.00000000
_cell_angle_gamma   90.00000000
_symmetry_Int_Tables_number   1
_chemical_formula_structural   Cu3H34C48(NO6)2
_chemical_formula_sum   'Cu12 H136 C192 N8 O48'
_cell_volume   4598.18785740
_cell_formula_units_Z   4
loop_
 _symmetry_equiv_pos_site_id
 _symmetry_equiv_pos_as_xyz
  1  'x, y, z'
loop_
 _atom_site_type_symbol
 _atom_site_label
 _atom_site_symmetry_multiplicity
 _atom_site_fract_x
 _atom_site_fract_y
 _atom_site_fract_z
 _atom_site_occupancy
  C  C0  1  0.07588014  0.39277543  0.19582394  1
  C  C1  1  0.04743844  0.20834073  0.08673314  1
  O  O2  1  0.01380352  0.00994285  0.20178064  1
  H  H3  1  0.40625857  0.28276444  0.08116478  1
  C  C4  1  0.05675108  0.31045480  0.03410718  1
  C  C5  1  0.47185851  0.33664809  0.20590925  1
  H  H6  1  0.26935459  0.37019454  0.03929445  1
  H  H7  1  0.30506263  0.38171330  0.15929369  1
  H  H8  1  0.10132153  0.27007760  0.23142763  1
  H  H9  1  0.09698652  0.34253696  0.18194977  1
  H  H10  1  0.39890293  0.29705727  0.21519421  1
  C  C11  1  0.20396691  0.21764104  0.09558631  1
  O  O12  1  0.20359113  0.10657815  0.13346723  1
  C  C13  1  0.41641415  0.38618652  0.17429374  1
  C  C14  1  0.28345881  0.27495711  0.07832922  1
  C  C15  1  0.20962388  0.32374942  0.04857800  1
  O  O16  1  0.40994034  0.16882102  0.13224719  1
  C  C17  1  0.27739435  0.16063360  0.12312224  1
  H  H18  1  0.19331858  0.47052920  0.05203667  1
  Cu  Cu19  1  0.12949769  0.08926938  0.20041929  1
  O  O20  1  0.10211265  0.16250182  0.24243369  1
  C  C21  1  0.47677040  0.49756058  0.12939913  1
  C  C22  1  0.01722283  0.44086818  0.16339789  1
  C  C23  1  0.22035444  0.49996610  0.01589751  1
  C  C24  1  0.09869619  0.41177733  0.24792894  1
  H  H25  1  0.25113304  0.19440679  0.01750885  1
  C  C26  1  0.43155968  0.36226507  0.49441866  1
  C  C27  1  0.07404501  0.47662547  0.26770917  1
  H  H28  1  0.26894684  0.40234770  0.43963547  1
  C  C29  1  0.33199410  0.25422411  0.33684834  1
  C  C30  1  0.10497225  0.22581058  0.44746063  1
  H  H31  1  0.25419839  0.42014906  0.34217425  1
  C  C32  1  0.34242245  0.32183510  0.35353237  1
  C  C33  1  0.17971973  0.35652744  0.27870829  1
  H  H34  1  0.05056121  0.16315829  0.38542147  1
  C  C35  1  0.26704643  0.37247362  0.32359660  1
  O  O36  1  0.26850018  0.12645288  0.30113560  1
  C  C37  1  0.23738621  0.24024154  0.29554698  1
  C  C38  1  0.37408994  0.37604888  0.44457369  1
  H  H39  1  0.17962629  0.18732483  0.46665532  1
  C  C40  1  0.43411901  0.33402389  0.40342612  1
  C  C41  1  0.06814002  0.28346452  0.47483915  1
  H  H42  1  0.37513102  0.21330094  0.36094953  1
  C  C43  1  0.04269477  0.21647733  0.39813001  1
  Cu  Cu44  1  0.34134098  0.04978638  0.26744414  1
  C  C45  1  0.19675998  0.17325451  0.27845364  1
  H  H46  1  0.11573196  0.48902848  0.30840637  1
  C  C47  1  0.16622495  0.29035647  0.26403943  1
  H  H48  1  0.45762485  0.45954507  0.25486919  1
  C  C49  1  0.11755965  0.28770625  0.52913781  1
  O  O50  1  0.22071671  0.23885014  0.68679888  1
  O  O51  1  0.21238440  0.24709028  0.54664942  1
  C  C52  1  0.27777339  0.28620368  0.71322328  1
  H  H53  1  0.08081881  0.03362202  0.61008806  1
  Cu  Cu54  1  0.21508564  0.24169425  0.61652015  1
  O  O55  1  0.39266476  0.31672977  0.69821962  1
  O  O56  1  0.03871549  0.32816245  0.55558152  1
  H  H57  1  0.38294399  0.38276407  0.52812619  1
  Cu  Cu58  1  0.48983844  0.28182719  0.64388021  1
  H  H59  1  0.46003391  0.11656379  0.71220837  1
  H  H60  1  0.01026333  0.14562183  0.64887330  1
  H  H61  1  0.00525587  0.24092449  0.74647094  1
  O  O62  1  0.25848104  0.03121711  0.73468133  1
  C  C63  1  0.42151374  0.07658949  0.73740765  1
  H  H64  1  0.47705568  0.24072538  0.93230881  1
  H  H65  1  0.36854359  0.38367893  0.77338162  1
  C  C66  1  0.04891027  0.35338406  0.84429219  1
  O  O67  1  0.32809905  0.45338292  0.97060176  1
  C  C68  1  0.18641516  0.38336726  0.82890452  1
  H  H69  1  0.13649718  0.16463052  0.83345691  1
  C  C70  1  0.26357316  0.35997137  0.78614212  1
  H  H71  1  0.01320922  0.45224333  0.75883966  1
  H  H72  1  0.40555017  0.09215391  0.77770913  1
  H  H73  1  0.22954680  0.42566289  0.85109209  1
  C  C74  1  0.43748418  0.45005033  0.88921537  1
  H  H75  1  0.17954821  0.49739964  0.79398894  1
  C  C76  1  0.35490648  0.48472047  0.92996073  1
  C  C77  1  0.24662928  0.15534023  0.84926486  1
  C  C78  1  0.33248875  0.19109350  0.98476880  1
  C  C79  1  0.36009780  0.19670616  0.84491070  1
  C  C80  1  0.19568763  0.30841829  0.75772321  1
  H  H81  1  0.36985149  0.14060782  0.96992011  1
  H  H82  1  0.33868367  0.24834308  0.82914565  1
  H  H83  1  0.47330355  0.18399379  0.86185731  1
  H  H84  1  0.08434410  0.28826784  0.93244126  1
  H  H85  1  0.27318237  0.10566640  0.86207785  1
  C  C86  1  0.05390068  0.28014217  0.77040747  1
  C  C87  1  0.02317166  0.33616647  0.94029649  1
  C  C88  1  0.38884977  0.24520611  0.96371852  1
  C  C89  1  0.44902403  0.48353863  0.84276023  1
  C  C90  1  0.49803088  0.38495295  0.89754769  1
  H  H91  1  0.10093238  0.00341797  0.83898229  1
  H  H92  1  0.46677644  0.35892809  0.93295704  1
  H  H93  1  0.49848242  0.02055265  0.81240094  1
  C  C94  1  0.00902860  0.00016713  0.86938967  1
  H  H95  1  0.35531500  0.29761589  0.97193194  1
  C  C96  1  0.23200127  0.75393364  0.15432919  1
  H  H97  1  0.00468621  0.72760802  0.17484869  1
  H  H98  1  0.27189274  0.86803849  0.19675878  1
  H  H99  1  0.35142164  0.65799573  0.23312410  1
  C  C100  1  0.04976193  0.72101302  0.09193079  1
  C  C101  1  0.30363634  0.76264248  0.20841093  1
  C  C102  1  0.32702462  0.83002777  0.22004228  1
  H  H103  1  0.35672764  0.61582505  0.09168564  1
  H  H104  1  0.38989622  0.74708424  0.03288158  1
  C  C105  1  0.34056335  0.75757557  0.11332055  1
  N  N106  1  0.27083773  0.56046465  0.03245169  1
  C  C107  1  0.30239674  0.74290069  0.06234525  1
  C  C108  1  0.08381422  0.73746121  0.14413354  1
  C  C109  1  0.15704830  0.71927166  0.05215492  1
  C  C110  1  0.35824168  0.71073984  0.24043237  1
  C  C111  1  0.28774212  0.56714243  0.08563544  1
  O  O112  1  0.33665145  0.50200179  0.11727974  1
  H  H113  1  0.16596969  0.56759855  0.09552857  1
  H  H114  1  0.45269455  0.77869112  0.11970715  1
  O  O115  1  0.40285781  0.96742295  0.24034166  1
  C  C116  1  0.01304517  0.52492026  0.23386059  1
  C  C117  1  0.17176516  0.66552487  0.46084440  1
  H  H118  1  0.06660126  0.66458114  0.28708880  1
  N  N119  1  0.43069800  0.82042057  0.40504010  1
  H  H120  1  0.14404795  0.61464578  0.37346821  1
  H  H121  1  0.29171629  0.74464184  0.37112556  1
  H  H122  1  0.27415811  0.83855617  0.34904830  1
  C  C123  1  0.09977375  0.66494591  0.36888567  1
  H  H124  1  0.42756468  0.54297667  0.39527249  1
  O  O125  1  0.21778622  0.89072894  0.47642949  1
  C  C126  1  0.32402956  0.79812280  0.37430079  1
  H  H127  1  0.25330897  0.84447228  0.48481204  1
  H  H128  1  0.46839546  0.72259139  0.41856099  1
  O  O129  1  0.25951337  0.61651636  0.45696910  1
  C  C130  1  0.09264000  0.69665567  0.41806522  1
  C  C131  1  0.42742073  0.62568840  0.33753611  1
  H  H132  1  0.31381576  0.61855108  0.31996242  1
  H  H133  1  0.45290825  0.87076783  0.40777090  1
  C  C134  1  0.45561437  0.92203595  0.26838741  1
  C  C135  1  0.04247648  0.69121002  0.32376680  1
  C  C136  1  0.44134264  0.73264205  0.28453854  1
  C  C137  1  0.41702354  0.85164472  0.26086592  1
  C  C138  1  0.01128475  0.75837324  0.42098907  1
  C  C139  1  0.47651421  0.80093602  0.29299807  1
  H  H140  1  0.01362259  0.79046893  0.45598310  1
  H  H141  1  0.03022025  0.88317924  0.31448856  1
  C  C142  1  0.48645029  0.58968443  0.37820923  1
  C  C143  1  0.28035461  0.87304577  0.66315316  1
  C  C144  1  0.43211458  0.75800266  0.74411269  1
  C  C145  1  0.25881048  0.87732094  0.57280546  1
  H  H146  1  0.07829141  0.78806918  0.66090849  1
  H  H147  1  0.10444767  0.93401805  0.62236366  1
  C  C148  1  0.38632895  0.81958493  0.65525495  1
  C  C149  1  0.17899868  0.91205121  0.52637487  1
  O  O150  1  0.42780305  0.65128488  0.60737925  1
  Cu  Cu151  1  0.29580337  0.68228189  0.56107988  1
  C  C152  1  0.20397674  0.90032603  0.62009317  1
  C  C153  1  0.44864018  0.80119730  0.60583052  1
  O  O154  1  0.09727730  0.96017384  0.53126306  1
  C  C155  1  0.38040233  0.83329475  0.56419827  1
  H  H156  1  0.24341031  0.88459328  0.70240150  1
  C  C157  1  0.04631615  0.68763849  0.68640643  1
  H  H158  1  0.15842930  0.68498302  0.70726902  1
  O  O159  1  0.16961700  0.69819150  0.50416450  1
  H  H160  1  0.31730175  0.73708822  0.74102035  1
  H  H161  1  0.49079425  0.65173441  0.70395343  1
  Cu  Cu162  1  0.37705187  0.58884384  0.51001739  1
  H  H163  1  0.42013669  0.82723624  0.52505332  1
  C  C164  1  0.01486538  0.74161995  0.65603640  1
  C  C165  1  0.48047121  0.59241493  0.60744097  1
  O  O166  1  0.47600625  0.55827563  0.56534223  1
  C  C167  1  0.48134003  0.79857518  0.70260751  1
  H  H168  1  0.00597541  0.53109542  0.51096209  1
  H  H169  1  0.16720430  0.72406435  0.86007403  1
  C  C170  1  0.11929922  0.93582859  0.75776861  1
  H  H171  1  0.14384933  0.56042687  0.84763569  1
  H  H172  1  0.00424978  0.77757639  0.78691797  1
  O  O173  1  0.31517102  0.54532187  0.92126533  1
  H  H174  1  0.23042418  0.85095518  0.79637829  1
  O  O175  1  0.40496728  0.66790950  0.83350098  1
  H  H176  1  0.39571963  0.53218209  0.83791675  1
  O  O177  1  0.23003091  0.69176404  0.96594906  1
  Cu  Cu178  1  0.35367328  0.61389173  0.96798028  1
  C  C179  1  0.12753281  0.86838790  0.77511291  1
  O  O180  1  0.36207530  0.95036828  0.78517404  1
  C  C181  1  0.00389414  0.82825116  0.77345174  1
  C  C182  1  0.11193550  0.54151479  0.80785343  1
  C  C183  1  0.25445301  0.97560906  0.75888992  1
  C  C184  1  0.04639449  0.73401991  0.86732392  1
  N  N185  1  0.06771323  0.96745966  0.91338772  1
  H  H186  1  0.25057016  0.91667357  0.93400326  1
  H  H187  1  0.02547699  0.78027465  0.89033588  1
  C  C188  1  0.18629876  0.93553119  0.90205219  1
  H  H189  1  0.23306701  0.93077863  0.86229171  1
  H  H190  1  0.12848501  0.51078250  0.98579535  1
  C  C191  1  0.13003715  0.69177914  0.99969837  1
  O  O192  1  0.00772130  0.66130758  0.99409219  1
  O  O193  1  0.09058349  0.59516636  0.76048858  1
  H  H194  1  0.93364214  0.44057023  0.03935415  1
  H  H195  1  0.85535683  0.25236667  0.04563568  1
  C  C196  1  0.71655791  0.39204145  0.21228622  1
  C  C197  1  0.63686093  0.34602263  0.03873977  1
  C  C198  1  0.67523999  0.34654936  0.08832534  1
  H  H199  1  0.76247526  0.10629759  0.19468852  1
  H  H200  1  0.99120646  0.42871962  0.12377594  1
  C  C201  1  0.61841432  0.33973408  0.22807701  1
  H  H202  1  0.83287738  0.24914440  0.19558451  1
  H  H203  1  0.83602129  0.39648462  0.22642922  1
  C  C204  1  0.66151169  0.44320374  0.18193552  1
  C  C205  1  0.50987242  0.44110477  0.16297913  1
  H  H206  1  0.59949922  0.36961940  0.11690713  1
  H  H207  1  0.58537558  0.19090762  0.13855832  1
  H  H208  1  0.73601381  0.48508471  0.17271990  1
  N  N209  1  0.70265990  0.18706076  0.13279764  1
  C  C210  1  0.79080496  0.14786985  0.16689273  1
  H  H211  1  0.53436049  0.21071244  0.22840389  1
  H  H212  1  0.78927477  0.33385813  0.10166116  1
  C  C213  1  0.82161214  0.20978274  0.16407762  1
  H  H214  1  0.98350789  0.16622575  0.10240514  1
  C  C215  1  0.97525743  0.25572725  0.05490956  1
  H  H216  1  0.53023392  0.36636783  0.02586913  1
  O  O217  1  0.51332071  0.09030155  0.24807129  1
  H  H218  1  0.71864040  0.33111732  0.00875740  1
  H  H219  1  0.83640432  0.14150981  0.34667817  1
  C  C220  1  0.90884579  0.32294032  0.40546419  1
  H  H221  1  0.84014023  0.34826902  0.30729014  1
  C  C222  1  0.58292296  0.30414600  0.40884626  1
  C  C223  1  0.58460779  0.44317137  0.32213668  1
  O  O224  1  0.65929366  0.05873191  0.31312114  1
  C  C225  1  0.61409132  0.10285164  0.28233555  1
  C  C226  1  0.84527560  0.24543737  0.33124325  1
  C  C227  1  0.67032093  0.17054514  0.28845344  1
  H  H228  1  0.58359815  0.38881166  0.31391590  1
  C  C229  1  0.61550946  0.22212573  0.25786593  1
  H  H230  1  0.75451222  0.26950038  0.46643961  1
  H  H231  1  0.63043861  0.27901989  0.37468345  1
  H  H232  1  0.82756670  0.36020277  0.39173958  1
  C  C233  1  0.79004920  0.29810470  0.30054183  1
  C  C234  1  0.64449025  0.29701482  0.45761991  1
  C  C235  1  0.78935347  0.18058977  0.32330393  1
  C  C236  1  0.93960118  0.26347082  0.37832825  1
  H  H237  1  0.64202181  0.45887903  0.35842239  1
  H  H238  1  0.96857314  0.37865879  0.47500827  1
  C  C239  1  0.98978586  0.33516016  0.45144784  1
  C  C240  1  0.67855260  0.28525587  0.26303999  1
  O  O241  1  0.92865359  0.00275715  0.27937211  1
  C  C242  1  0.52022577  0.48267805  0.28817678  1
  H  H243  1  0.57341342  0.40328976  0.69876461  1
  C  C244  1  0.96072638  0.04599352  0.61847872  1
  C  C245  1  0.77085254  0.12817968  0.64368331  1
  O  O246  1  0.58842014  0.20873417  0.67123749  1
  H  H247  1  0.56997642  0.46898104  0.61719448  1
  C  C248  1  0.65826609  0.08072830  0.63316884  1
  Cu  Cu249  1  0.91675869  0.28928313  0.60391947  1
  C  C250  1  0.62911850  0.31061188  0.55248863  1
  C  C251  1  0.92320266  0.11014818  0.63474895  1
  C  C252  1  0.72388707  0.19505311  0.66185147  1
  O  O253  1  0.75146091  0.28035041  0.55338575  1
  H  H254  1  0.98480200  0.01549969  0.72022293  1
  O  O255  1  0.82470474  0.23980342  0.65935950  1
  C  C256  1  0.54742465  0.49241970  0.65511693  1
  C  C257  1  0.69057092  0.01806111  0.61535785  1
  O  O258  1  0.55628299  0.32985538  0.59184694  1
  N  N259  1  0.83066706  0.46857298  0.50469567  1
  C  C260  1  0.55152699  0.45737817  0.70137188  1
  H  H261  1  0.53827060  0.09734873  0.63965853  1
  N  N262  1  0.54265974  0.03475379  0.73730099  1
  C  C263  1  0.54461861  0.49353970  0.74940893  1
  C  C264  1  0.68035320  0.46897033  0.50405456  1
  H  H265  1  0.64791103  0.41510992  0.51138578  1
  C  C266  1  0.56398798  0.32415176  0.50102580  1
  H  H267  1  0.86089321  0.18141716  0.93344699  1
  C  C268  1  0.62122962  0.24869604  0.81536127  1
  C  C269  1  0.60006197  0.39394290  0.80845207  1
  O  O270  1  0.93301718  0.07061640  0.88126982  1
  C  C271  1  0.64243137  0.28874657  0.85962668  1
  H  H272  1  0.66932233  0.36997617  0.77623838  1
  H  H273  1  0.84987932  0.46224698  0.87571687  1
  C  C274  1  0.53794413  0.45899336  0.80268674  1
  C  C275  1  0.79660451  0.19992899  0.90141660  1
  C  C276  1  0.88880347  0.46228872  0.95806306  1
  C  C277  1  0.84333612  0.09524776  0.84685537  1
  O  O278  1  0.81634576  0.06444229  0.80793609  1
  H  H279  1  0.56466719  0.27048131  0.77966860  1
  C  C280  1  0.77119594  0.16249887  0.85566981  1
  C  C281  1  0.57690006  0.35918864  0.85519737  1
  H  H282  1  0.74818453  0.29521810  0.93814318  1
  C  C283  1  0.73414799  0.26437509  0.90308187  1
  C  C284  1  0.99389691  0.35688512  0.99206742  1
  C  C285  1  0.68302975  0.18446403  0.81346174  1
  C  C286  1  0.90694485  0.43741952  0.90815942  1
  H  H287  1  0.87613072  0.27481730  0.82958802  1
  H  H288  1  0.81436065  0.45222956  0.79497951  1
  C  C289  1  0.98845432  0.37845421  0.89694715  1
  C  C290  1  0.91771900  0.48159989  0.78004431  1
  C  C291  1  0.97863009  0.30204001  0.81286391  1
  C  C292  1  0.93634925  0.42216493  0.99937354  1
  H  H293  1  0.66545817  0.15561741  0.78066390  1
  Cu  Cu294  1  0.69544529  0.54515474  0.06163253  1
  O  O295  1  0.57419537  0.54213842  0.12079776  1
  H  H296  1  0.75244287  0.79514479  0.01326449  1
  C  C297  1  0.75278022  0.77933821  0.14608932  1
  C  C298  1  0.60342320  0.68149052  0.01041506  1
  C  C299  1  0.90986512  0.55929487  0.14925944  1
  C  C300  1  0.72675092  0.77518358  0.05200400  1
  C  C301  1  0.82356927  0.80938463  0.19549576  1
  C  C302  1  0.87442376  0.87687671  0.19532852  1
  C  C303  1  0.64749268  0.71535123  0.05856024  1
  O  O304  1  0.88291068  0.61336483  0.16761534  1
  O  O305  1  0.89011898  0.54439761  0.09640873  1
  H  H306  1  0.85194802  0.85086781  0.08796626  1
  C  C307  1  0.59669907  0.69346628  0.10801784  1
  Cu  Cu308  1  0.94549701  0.59795907  0.04527945  1
  H  H309  1  0.85452925  0.90973114  0.16072814  1
  C  C310  1  0.65455655  0.72276290  0.15168553  1
  C  C311  1  0.77324163  0.80794286  0.09676421  1
  H  H312  1  0.61477234  0.70574155  0.19289758  1
  H  H313  1  0.53055481  0.64833490  0.11386961  1
  H  H314  1  0.80767978  0.71701580  0.24030270  1
  C  C315  1  0.84888620  0.76811900  0.23887528  1
  H  H316  1  0.93067942  0.71124602  0.08414070  1
  C  C317  1  0.94692438  0.90304065  0.23675323  1
  O  O318  1  0.80096330  0.55760391  0.00582782  1
  C  C319  1  0.97414044  0.97287519  0.23936091  1
  C  C320  1  0.98369499  0.50520771  0.18233389  1
  O  O321  1  0.50197283  0.63851975  0.01419369  1
  H  H322  1  0.98352940  0.57523857  0.24815708  1
  C  C323  1  0.72113511  0.65610841  0.37853799  1
  H  H324  1  0.72067193  0.74078913  0.33013136  1
  H  H325  1  0.51897388  0.53825629  0.29108784  1
  C  C326  1  0.67787668  0.56546018  0.44296790  1
  C  C327  1  0.66021869  0.85595437  0.47950899  1
  O  O328  1  0.61478740  0.78168210  0.46571596  1
  C  C329  1  0.62848027  0.60574805  0.39800227  1
  H  H330  1  0.83606733  0.66731648  0.39503546  1
  H  H331  1  0.55237380  0.81598701  0.32509023  1
  O  O332  1  0.54242294  0.93036711  0.30711040  1
  Cu  Cu333  1  0.72773439  0.96958746  0.29720389  1
  C  C334  1  0.93474104  0.79765417  0.28055668  1
  C  C335  1  0.97097125  0.86518780  0.28099959  1
  C  C336  1  0.65518662  0.69507543  0.34138788  1
  O  O337  1  0.80152100  0.58312874  0.46309265  1
  C  C338  1  0.51456196  0.67966143  0.31948447  1
  H  H339  1  0.89356271  0.83353529  0.37984369  1
  O  O340  1  0.61761713  0.90298082  0.45664717  1
  C  C341  1  0.51089725  0.77383250  0.43088498  1
  C  C342  1  0.97437735  0.75547798  0.32780633  1
  C  C343  1  0.94329136  0.78435023  0.37705946  1
  O  O344  1  0.60357082  0.51498712  0.45614284  1
  H  H345  1  0.94280989  0.86995350  0.65644745  1
  H  H346  1  0.76160638  0.94348474  0.71274854  1
  C  C347  1  0.77925269  0.79946715  0.55042900  1
  H  H348  1  0.75281602  0.96982566  0.52483740  1
  C  C349  1  0.75190919  0.86182961  0.52607686  1
  C  C350  1  0.89728637  0.86421482  0.61950254  1
  C  C351  1  0.88627742  0.73550371  0.62410483  1
  C  C352  1  0.85694716  0.92475211  0.59567965  1
  H  H353  1  0.67377242  0.84957318  0.66587153  1
  H  H354  1  0.77406263  0.57312144  0.64656359  1
  C  C355  1  0.79152766  0.92615992  0.54667081  1
  C  C356  1  0.84565205  0.99871731  0.61303014  1
  H  H357  1  0.60627892  0.97984473  0.60531896  1
  H  H358  1  0.70818052  0.67826222  0.59187783  1
  C  C359  1  0.83904676  0.62075900  0.65051537  1
  C  C360  1  0.87293696  0.85562505  0.74894036  1
  C  C361  1  0.86258873  0.92241469  0.73131768  1
  C  C362  1  0.80573388  0.67342394  0.61870510  1
  C  C363  1  0.85086613  0.80004395  0.59891859  1
  H  H364  1  0.83464446  0.55741907  0.54649974  1
  C  C365  1  0.62961252  0.82504778  0.69973696  1
  O  O366  1  0.89740485  0.53226657  0.72840247  1
  H  H367  1  0.73497944  0.75600787  0.53159728  1
  C  C368  1  0.87718746  0.53514889  0.50913044  1
  C  C369  1  0.51415058  0.56151810  0.65576203  1
  C  C370  1  0.71964901  0.81982581  0.74481287  1
  C  C371  1  0.95599040  0.63062479  0.68742235  1
  C  C372  1  0.50705361  0.59701189  0.70245883  1
  H  H373  1  0.54804480  0.77002946  0.60455928  1
  C  C374  1  0.98773627  0.96208289  0.73410091  1
  C  C375  1  0.99220165  0.57964221  0.72551726  1
  H  H376  1  0.64623955  0.50984111  0.53442425  1
  C  C377  1  0.52542216  0.56370914  0.74921259  1
  H  H378  1  0.90170283  0.60326000  0.83087484  1
  C  C379  1  0.53553617  0.98887568  0.77796210  1
  O  O380  1  0.76718331  0.55505452  0.92200722  1
  H  H381  1  0.76555098  0.64793622  0.81161629  1
  H  H382  1  0.73883615  0.79011571  0.82207374  1
  O  O383  1  0.64464262  0.70252154  0.96609938  1
  H  H384  1  0.51234739  0.59034746  0.78702021  1
  C  C385  1  0.66723028  0.78741992  0.78740466  1
  O  O386  1  0.60625415  0.71253838  0.87136540  1
  C  C387  1  0.81735134  0.52778233  0.96080445  1
  Cu  Cu388  1  0.71306523  0.64548080  0.91115163  1
  N  N389  1  0.83680889  0.64309285  0.84332225  1
  C  C390  1  0.93984994  0.68932691  0.85428453  1
  H  H391  1  0.64533945  0.96065633  0.78483363  1
  H  H392  1  0.92283855  0.96363848  0.85866534  1
  C  C393  1  0.52900900  0.75316790  0.78591143  1
  N  N394  1  0.97747340  0.51022856  0.82296391  1
  C  C395  1  0.50312755  0.70817770  0.83266949  1
