# generated using pymatgen
data_ZnH14(C5N2)2
_symmetry_space_group_name_H-M   'P 1'
_cell_length_a   24.32697098
_cell_length_b   13.14845590
_cell_length_c   19.02821524
_cell_angle_alpha   90.00000000
_cell_angle_beta   90.00000000
_cell_angle_gamma   90.00000000
_symmetry_Int_Tables_number   1
_chemical_formula_structural   ZnH14(C5N2)2
_chemical_formula_sum   'Zn24 H336 C240 N96'
_cell_volume   6086.40498127
_cell_formula_units_Z   24
loop_
 _symmetry_equiv_pos_site_id
 _symmetry_equiv_pos_as_xyz
  1  'x, y, z'
loop_
 _atom_site_type_symbol
 _atom_site_label
 _atom_site_symmetry_multiplicity
 _atom_site_fract_x
 _atom_site_fract_y
 _atom_site_fract_z
 _atom_site_occupancy
  Zn  Zn0  1  0.03967706  0.17502296  0.20723587  1
  N  N1  1  0.07398021  0.31491311  0.21773336  1
  C  C2  1  0.12661653  0.34774748  0.22098094  1
  H  H3  1  0.12169219  0.17605350  0.07865526  1
  H  H4  1  0.19915557  0.29709253  0.28610110  1
  N  N5  1  0.13836161  0.18848751  0.41749108  1
  H  H6  1  0.04383852  0.45994031  0.42388380  1
  N  N7  1  0.04397969  0.25990691  0.02173751  1
  C  C8  1  0.17486539  0.27796471  0.23921205  1
  C  C9  1  0.04195866  0.39777511  0.22023729  1
  H  H10  1  0.07916753  0.26341816  0.47948333  1
  C  C11  1  0.12839191  0.33025039  0.00719586  1
  H  H12  1  0.06151377  0.06646131  0.46145103  1
  C  C13  1  0.13241357  0.11188781  0.11453277  1
  C  C14  1  0.07785126  0.33099423  0.04781260  1
  H  H15  1  0.21503319  0.17495304  0.03641180  1
  H  H16  1  0.16064564  0.19986747  0.24639511  1
  H  H17  1  0.18869916  0.28739495  0.12601978  1
  N  N18  1  0.12814947  0.45339785  0.21225122  1
  N  N19  1  0.10117233  0.08782518  0.16882869  1
  H  H20  1  0.06550104  0.37843825  0.09351410  1
  H  H21  1  0.16561955  0.37550276  0.00881299  1
  C  C22  1  0.21431334  0.27759766  0.17400500  1
  C  C23  1  0.01350327  0.40027728  0.40963855  1
  C  C24  1  0.02097377  0.33406979  0.35905132  1
  H  H25  1  0.05792625  0.33666385  0.32639238  1
  H  H26  1  0.24151665  0.34476410  0.17687890  1
  C  C27  1  0.08241741  0.00772699  0.32869576  1
  C  C28  1  0.18145041  0.12311703  0.43062271  1
  C  C29  1  0.12027897  0.00174321  0.19712228  1
  C  C30  1  0.11310658  0.20700527  0.47566813  1
  H  H31  1  0.23727049  0.44486842  0.45590120  1
  C  C32  1  0.07559351  0.48686873  0.21378338  1
  H  H33  1  0.01318871  0.44437131  0.03492958  1
  C  C34  1  0.22412733  0.09416409  0.37447560  1
  H  H35  1  0.11268225  0.06678662  0.34305759  1
  H  H36  1  0.23869029  0.16328843  0.34868511  1
  H  H37  1  0.04043007  0.03884198  0.31763005  1
  H  H38  1  0.22471855  0.25039240  0.48682574  1
  C  C39  1  0.20736470  0.01183484  0.31836258  1
  H  H40  1  0.18498684  0.05701767  0.27899585  1
  H  H41  1  0.23553112  0.20326531  0.17090990  1
  C  C42  1  0.17796036  0.04151246  0.11301127  1
  H  H43  1  0.04911872  0.01808479  0.02621993  1
  H  H44  1  0.21628508  0.03810997  0.08237693  1
  C  C45  1  0.02547068  0.07619882  0.49756106  1
  N  N46  1  0.12260273  0.25192515  0.96352124  1
  C  C47  1  0.04953195  0.11357649  0.92914016  1
  Zn  Zn48  1  0.24322407  0.03709298  0.55440810  1
  C  C49  1  0.10765620  0.31716289  0.78050051  1
  N  N50  1  0.15841014  0.27991690  0.79939859  1
  C  C51  1  0.09233596  0.47039735  0.54673317  1
  C  C52  1  0.05119469  0.29562620  0.81419051  1
  H  H53  1  0.01608835  0.11506867  0.69125527  1
  C  C54  1  0.02198943  0.40282184  0.80685030  1
  H  H55  1  0.01239624  0.13589157  0.89263758  1
  C  C56  1  0.02403613  0.03120677  0.97662811  1
  N  N57  1  0.19817038  0.06848013  0.90672447  1
  H  H58  1  0.03131181  0.23318812  0.78813609  1
  H  H59  1  0.17464395  0.38216063  0.64072265  1
  C  C60  1  0.07203261  0.20986445  0.97099554  1
  C  C61  1  0.18359276  0.00579108  0.95761613  1
  H  H62  1  0.13635280  0.15807021  0.58652558  1
  H  H63  1  0.13343405  0.47216550  0.93720862  1
  H  H64  1  0.05570807  0.26630713  0.86804268  1
  C  C65  1  0.16050192  0.35376940  0.69171592  1
  H  H66  1  0.12085673  0.14636863  0.74398642  1
  H  H67  1  0.03508919  0.45588783  0.84637306  1
  H  H68  1  0.23576701  0.27825649  0.74245871  1
  N  N69  1  0.24909170  0.29432681  0.92431427  1
  H  H70  1  0.08453750  0.07530469  0.89975957  1
  N  N71  1  0.10888335  0.35737007  0.71381812  1
  C  C72  1  0.19182032  0.29965780  0.74408637  1
  Zn  Zn73  1  0.18126733  0.22420145  0.89202551  1
  N  N74  1  0.14520379  0.49302833  0.52957242  1
  N  N75  1  0.03066771  0.09296321  0.56710267  1
  H  H76  1  0.02699139  0.43498906  0.75212272  1
  H  H77  1  0.13364891  0.47891535  0.78318190  1
  N  N78  1  0.12337652  0.06286036  0.73025148  1
  C  C79  1  0.23972005  0.02571783  0.86938390  1
  C  C80  1  0.07695218  0.03257112  0.75677517  1
  H  H81  1  0.07099919  0.40785634  0.52283979  1
  H  H82  1  0.22371514  0.09358010  0.76327170  1
  C  C83  1  0.02852342  0.01894195  0.79021855  1
  H  H84  1  0.00976155  0.08473106  0.81934838  1
  C  C85  1  0.14125673  0.15219861  0.53053154  1
  H  H86  1  0.14993176  0.02597789  0.99598910  1
  N  N87  1  0.18460699  0.10318681  0.50151856  1
  C  C88  1  0.07707365  0.71753308  0.34500289  1
  C  C89  1  0.05751283  0.70967874  0.27517769  1
  H  H90  1  0.19979466  0.74042651  0.18156477  1
  H  H91  1  0.15443750  0.87158157  0.49155968  1
  H  H92  1  0.07272686  0.88285862  0.10286250  1
  N  N93  1  0.17015994  0.97768786  0.16507151  1
  H  H94  1  0.06027776  0.89652432  0.24768734  1
  H  H95  1  0.22405883  0.58284056  0.44402812  1
  C  C96  1  0.23580499  0.59237893  0.15682561  1
  C  C97  1  0.21543761  0.65663263  0.46950533  1
  H  H98  1  0.06286183  0.56435738  0.21003212  1
  H  H99  1  0.24312426  0.87740860  0.16735386  1
  H  H100  1  0.11620103  0.74442030  0.36724890  1
  N  N101  1  0.00473581  0.67925431  0.27645037  1
  H  H102  1  0.08157490  0.73169046  0.22664162  1
  H  H103  1  0.17786186  0.95243389  0.33857279  1
  H  H104  1  0.08047505  0.84990871  0.48922463  1
  H  H105  1  0.14686711  0.74784976  0.11000295  1
  H  H106  1  0.09664813  0.64320610  0.11167832  1
  C  C107  1  0.10518767  0.72378311  0.09400725  1
  N  N108  1  0.03374137  0.69563050  0.38871930  1
  H  H109  1  0.10464400  0.70721862  0.03413944  1
  C  C110  1  0.09637834  0.94573143  0.26203308  1
  C  C111  1  0.00860844  0.76920078  0.07301554  1
  C  C112  1  0.06002742  0.80120111  0.11621931  1
  H  H113  1  0.05155653  0.80197775  0.17404889  1
  H  H114  1  0.19674776  0.55058963  0.16518262  1
  H  H115  1  0.12495838  0.88732528  0.28692397  1
  H  H116  1  0.23777269  0.83252862  0.48091359  1
  H  H117  1  0.07562970  0.96209124  0.37677384  1
  H  H118  1  0.17732972  0.68862270  0.44667298  1
  H  H119  1  0.24354493  0.97888838  0.29438586  1
  C  C120  1  0.22624811  0.70633843  0.13712938  1
  H  H121  1  0.20556641  0.71650126  0.08556298  1
  H  H122  1  0.20079606  0.62308821  0.00079101  1
  N  N123  1  0.00282139  0.78915645  0.00322103  1
  C  C124  1  0.21025974  0.64118379  0.55124593  1
  N  N125  1  0.18187978  0.80444756  0.67814260  1
  Zn  Zn126  1  0.12514062  0.70102621  0.70153450  1
  H  H127  1  0.24855052  0.74617604  0.73479750  1
  N  N128  1  0.22005449  0.92352922  0.61702908  1
  C  C129  1  0.23186291  0.80340039  0.70126843  1
  H  H130  1  0.12625613  0.76159515  0.53239858  1
  H  H131  1  0.13725521  0.98898583  0.71101936  1
  C  C132  1  0.15485557  0.86390840  0.82557043  1
  H  H133  1  0.02077866  0.70767585  0.69613220  1
  C  C134  1  0.22281804  0.92187355  0.95493270  1
  C  C135  1  0.02006896  0.84558436  0.74273281  1
  H  H136  1  0.10937957  0.98796767  0.57789855  1
  C  C137  1  0.11501532  0.69460883  0.86255888  1
  N  N138  1  0.11996312  0.59452444  0.61832680  1
  H  H139  1  0.14631104  0.84785745  0.76913393  1
  C  C140  1  0.15979158  0.57426022  0.57216456  1
  H  H141  1  0.20341320  0.65758323  0.87546325  1
  C  C142  1  0.11613905  0.90504677  0.58949791  1
  C  C143  1  0.12734771  0.54132609  0.82328993  1
  H  H144  1  0.03700546  0.54155495  0.63197340  1
  H  H145  1  0.10800425  0.83673567  0.92544632  1
  C  C146  1  0.10871659  0.80935166  0.87140814  1
  N  N147  1  0.12085628  0.63211052  0.92054249  1
  H  H148  1  0.15398092  0.94778131  0.83168875  1
  H  H149  1  0.01656908  0.95579798  0.95155127  1
  H  H150  1  0.03062746  0.63205191  0.79645658  1
  H  H151  1  0.07119596  0.83833581  0.84890331  1
  N  N152  1  0.04183013  0.77745896  0.70280790  1
  H  H153  1  0.20439384  0.71643450  0.57935256  1
  N  N154  1  0.11788111  0.63729557  0.80242428  1
  H  H155  1  0.19723795  0.84228103  0.84291223  1
  C  C156  1  0.17165110  0.88206597  0.63038821  1
  H  H157  1  0.07648163  0.88693592  0.62129522  1
  C  C158  1  0.11821553  0.84436350  0.52052932  1
  C  C159  1  0.12754549  0.53688142  0.89771739  1
  C  C160  1  0.07510125  0.53922229  0.59979795  1
  H  H161  1  0.24727570  0.59956225  0.56652661  1
  H  H162  1  0.01445139  0.64088418  0.88443604  1
  H  H163  1  0.23812625  0.53525314  0.86891973  1
  C  C164  1  0.23929757  0.59578321  0.97710243  1
  C  C165  1  0.24236526  0.61558785  0.89130050  1
  H  H166  1  0.24788992  0.51549095  0.99235812  1
  H  H167  1  0.23204315  0.85193191  0.99120501  1
  H  H168  1  0.41340584  0.04815325  0.09367522  1
  H  H169  1  0.45845862  0.49261107  0.34820174  1
  H  H170  1  0.34152174  0.11763168  0.04829294  1
  H  H171  1  0.34798330  0.15690543  0.14408336  1
  C  C172  1  0.42723320  0.03658163  0.14749126  1
  C  C173  1  0.32878653  0.27291756  0.22613553  1
  H  H174  1  0.43609615  0.34957205  0.12582405  1
  H  H175  1  0.29042435  0.02634579  0.06605701  1
  C  C176  1  0.26028369  0.19267339  0.04224368  1
  C  C177  1  0.46238380  0.36702347  0.26300708  1
  C  C178  1  0.47540256  0.46252657  0.29711943  1
  N  N179  1  0.49136956  0.36144403  0.20405712  1
  C  C180  1  0.32842645  0.16567003  0.19686687  1
  N  N181  1  0.34326225  0.35534943  0.18610444  1
  H  H182  1  0.31366022  0.00738487  0.20911749  1
  N  N183  1  0.42523676  0.24747595  0.05022530  1
  Zn  Zn184  1  0.48160978  0.24525198  0.13278525  1
  N  N185  1  0.31215309  0.30445377  0.29216096  1
  C  C186  1  0.37237706  0.08907971  0.45794693  1
  C  C187  1  0.31084744  0.08374563  0.23135363  1
  C  C188  1  0.33668122  0.43781126  0.22576498  1
  H  H189  1  0.29509226  0.45148817  0.33357668  1
  H  H190  1  0.25759040  0.05966970  0.40825709  1
  C  C191  1  0.46437059  0.07422266  0.25202832  1
  H  H192  1  0.37545946  0.09532802  0.33900226  1
  H  H193  1  0.29818186  0.09367259  0.28442695  1
  C  C194  1  0.29883894  0.09507646  0.03389076  1
  Zn  Zn195  1  0.37335085  0.36133311  0.08109779  1
  C  C196  1  0.31604501  0.40553385  0.29242363  1
  N  N197  1  0.46163584  0.10160486  0.18134194  1
  H  H198  1  0.43233419  0.30904986  0.27463995  1
  H  H199  1  0.40320337  0.20426608  0.38279018  1
  H  H200  1  0.32927352  0.18734536  0.38345865  1
  C  C201  1  0.36947955  0.14681683  0.38630506  1
  C  C202  1  0.49728002  0.13512192  0.30360573  1
  H  H203  1  0.28275626  0.25921183  0.43719220  1
  H  H204  1  0.26360301  0.22375566  0.09899633  1
  C  C205  1  0.26658135  0.28249905  0.48966019  1
  H  H206  1  0.48818098  0.03246382  0.39161474  1
  N  N207  1  0.40146094  0.49970917  0.04696609  1
  C  C208  1  0.26569404  0.40297105  0.49430304  1
  H  H209  1  0.41566642  0.07144481  0.46972368  1
  C  C210  1  0.42313218  0.19238839  0.00351162  1
  H  H211  1  0.30937917  0.43277340  0.48006098  1
  H  H212  1  0.34538794  0.46125782  0.93434733  1
  H  H213  1  0.44260540  0.20189296  0.59863365  1
  Zn  Zn214  1  0.38040339  0.40844738  0.56648797  1
  H  H215  1  0.40337052  0.44302618  0.71078120  1
  C  C216  1  0.45372681  0.45047724  0.93769917  1
  C  C217  1  0.26970835  0.37432062  0.89372711  1
  H  H218  1  0.32359849  0.16771018  0.85799504  1
  N  N219  1  0.45656972  0.35297027  0.56416312  1
  H  H220  1  0.46486505  0.18173830  0.84856206  1
  H  H221  1  0.35844422  0.13500984  0.50473834  1
  C  C222  1  0.31539393  0.40020939  0.93749814  1
  N  N223  1  0.28951193  0.14979908  0.59194546  1
  H  H224  1  0.37911464  0.08017774  0.94148609  1
  H  H225  1  0.26194341  0.22524112  0.82826366  1
  C  C226  1  0.25929579  0.07249455  0.79801177  1
  C  C227  1  0.34681462  0.24164652  0.65345228  1
  N  N228  1  0.33608643  0.28868055  0.59280867  1
  H  H229  1  0.40844393  0.12888048  0.73899403  1
  H  H230  1  0.41312573  0.04709550  0.65950536  1
  H  H231  1  0.31436122  0.20232242  0.76623533  1
  C  C232  1  0.42077863  0.17322261  0.86167978  1
  H  H233  1  0.37480130  0.26287434  0.69339909  1
  C  C234  1  0.47528573  0.25969121  0.58286634  1
  H  H235  1  0.29740351  0.07024386  0.97780363  1
  C  C236  1  0.29626067  0.24152589  0.55637272  1
  H  H237  1  0.40438956  0.11485771  0.82411776  1
  C  C238  1  0.41708427  0.12532909  0.93897728  1
  C  C239  1  0.31561523  0.14665993  0.65279584  1
  C  C240  1  0.33059958  0.48367556  0.78016377  1
  H  H241  1  0.34499769  0.48166441  0.83352906  1
  C  C242  1  0.29319313  0.17251392  0.81469229  1
  C  C243  1  0.40804302  0.05252321  0.71627946  1
  H  H244  1  0.30976097  0.41326526  0.76981830  1
  H  H245  1  0.40158678  0.24797916  0.85501116  1
  H  H246  1  0.31346787  0.08435675  0.69139389  1
  H  H247  1  0.45585433  0.37033684  0.95798955  1
  H  H248  1  0.45138372  0.06942370  0.94010498  1
  C  C249  1  0.48043792  0.47192998  0.87811589  1
  N  N250  1  0.31954525  0.33701124  0.99268867  1
  H  H251  1  0.25163293  0.41565268  0.84614845  1
  C  C252  1  0.27694810  0.27143807  0.98753227  1
  H  H253  1  0.28770567  0.01546762  0.77178407  1
  H  H254  1  0.25557084  0.43047883  0.54742706  1
  N  N255  1  0.35224282  0.62219387  0.33148270  1
  C  C256  1  0.28331823  0.76101490  0.14358016  1
  C  C257  1  0.32235180  0.83640618  0.41811165  1
  H  H258  1  0.32353573  0.61835521  0.29374696  1
  H  H259  1  0.41968309  0.51401198  0.46275053  1
  H  H260  1  0.26546571  0.58981483  0.20487822  1
  N  N261  1  0.29259187  0.95606969  0.48820044  1
  C  C262  1  0.39203040  0.67184545  0.02344198  1
  H  H263  1  0.43138567  0.78448884  0.12728761  1
  H  H264  1  0.32401153  0.72627792  0.13231741  1
  H  H265  1  0.43507077  0.63573088  0.35608152  1
  N  N266  1  0.35759025  0.91072358  0.41215681  1
  C  C267  1  0.40470382  0.64872321  0.31556161  1
  C  C268  1  0.38595349  0.59153428  0.07391280  1
  C  C269  1  0.41624062  0.69444430  0.25163286  1
  H  H270  1  0.40511108  0.93851122  0.05703150  1
  H  H271  1  0.36024125  0.59891587  0.12235247  1
  H  H272  1  0.38278630  0.70243348  0.21665148  1
  C  C273  1  0.46754030  0.73414690  0.22986020  1
  C  C274  1  0.41280341  0.96576207  0.19889853  1
  Zn  Zn275  1  0.42829276  0.90041675  0.35623772  1
  H  H276  1  0.32700719  0.76332161  0.38923492  1
  C  C277  1  0.47005483  0.75915278  0.15138893  1
  H  H278  1  0.46918651  0.59219155  0.11708002  1
  H  H279  1  0.27316924  0.63812327  0.00400830  1
  H  H280  1  0.38462559  0.89989515  0.18537513  1
  H  H281  1  0.34397488  0.58491702  0.37863168  1
  H  H282  1  0.37496399  0.74921752  0.02269682  1
  H  H283  1  0.35007975  0.51614604  0.20804567  1
  N  N284  1  0.28210479  0.85519050  0.15741089  1
  C  C285  1  0.27686059  0.86905775  0.46357461  1
  C  C286  1  0.49604209  0.66176661  0.11274637  1
  C  C287  1  0.40656071  0.91224644  0.00197506  1
  H  H288  1  0.25879360  0.55190959  0.11708438  1
  H  H289  1  0.46074593  0.62800598  0.45370645  1
  H  H290  1  0.49732483  0.82411892  0.14130053  1
  C  C291  1  0.33927434  0.98876604  0.45299171  1
  N  N292  1  0.43678555  0.98108174  0.26306599  1
  N  N293  1  0.48835204  0.84626225  0.42271824  1
  C  C294  1  0.49309539  0.83039894  0.48183452  1
  H  H295  1  0.25151935  0.70355427  0.45379685  1
  H  H296  1  0.31875630  0.90691478  0.00220690  1
  C  C297  1  0.44960403  0.56471880  0.48855815  1
  H  H298  1  0.40703619  0.55232846  0.76230482  1
  H  H299  1  0.41199491  0.74776122  0.57012578  1
  N  N300  1  0.35759435  0.89874834  0.97689189  1
  H  H301  1  0.29938620  0.91617267  0.66313583  1
  C  C302  1  0.38247904  0.97808790  0.74949713  1
  N  N303  1  0.32822069  0.71155578  0.85319370  1
  H  H304  1  0.43357988  0.59268260  0.54137829  1
  N  N305  1  0.35857766  0.54571923  0.59624490  1
  N  N306  1  0.34124381  0.67628615  0.66622754  1
  Zn  Zn307  1  0.41379919  0.70954600  0.87005126  1
  N  N308  1  0.25735939  0.94007448  0.90433163  1
  C  C309  1  0.29257957  0.66642034  0.87127673  1
  C  C310  1  0.42517653  0.52759527  0.98283328  1
  H  H311  1  0.30081027  0.54762866  0.77771521  1
  C  C312  1  0.32473656  0.70748128  0.60312795  1
  N  N313  1  0.45154246  0.85484440  0.89210977  1
  C  C314  1  0.25763931  0.88734964  0.66357014  1
  C  C315  1  0.45765266  0.89775038  0.96226104  1
  N  N316  1  0.47760170  0.69384984  0.80350034  1
  H  H317  1  0.43096182  0.89628095  0.85480265  1
  N  N318  1  0.35832470  0.90952026  0.78208142  1
  H  H319  1  0.30835105  0.78367880  0.59008515  1
  C  C320  1  0.35915464  0.57887753  0.66365703  1
  Zn  Zn321  1  0.33362532  0.87040667  0.88658396  1
  Zn  Zn322  1  0.34805834  0.76411889  0.75436320  1
  H  H323  1  0.42054396  0.88150653  0.59995377  1
  C  C324  1  0.33888708  0.62423619  0.55775836  1
  C  C325  1  0.37931921  0.51081833  0.72942955  1
  H  H326  1  0.47414851  0.56350670  0.66029081  1
  H  H327  1  0.48239126  0.55337680  0.86204355  1
  C  C328  1  0.44008490  0.80415886  0.59852437  1
  N  N329  1  0.41528768  0.62963424  0.96947577  1
  H  H330  1  0.44596035  0.77548285  0.65249744  1
  C  C331  1  0.48893673  0.63732829  0.75936689  1
  C  C332  1  0.49814452  0.80345675  0.55883520  1
  H  H333  1  0.33219949  0.61988617  0.50183033  1
  C  C334  1  0.65603945  0.00389431  0.24798432  1
  H  H335  1  0.67224242  0.07224596  0.21919297  1
  N  N336  1  0.64249428  0.19653728  0.04574521  1
  C  C337  1  0.58964306  0.39497095  0.37547918  1
  H  H338  1  0.73595658  0.12501988  0.47506324  1
  H  H339  1  0.71464564  0.27486689  0.16262775  1
  C  C340  1  0.55600003  0.19048264  0.00950935  1
  H  H341  1  0.62845949  0.24517000  0.35579713  1
  H  H342  1  0.59836163  0.40232931  0.14200886  1
  H  H343  1  0.63512994  0.16234633  0.20731594  1
  C  C344  1  0.60613520  0.49558764  0.41461377  1
  C  C345  1  0.62670671  0.23723294  0.17861877  1
  H  H346  1  0.67638323  0.35149752  0.34540182  1
  H  H347  1  0.52108855  0.16192408  0.40951609  1
  C  C348  1  0.53775710  0.44859971  0.06580328  1
  H  H349  1  0.64958718  0.38108883  0.02084566  1
  H  H350  1  0.57406217  0.40871919  0.31989390  1
  N  N351  1  0.55616230  0.21342999  0.07643724  1
  H  H352  1  0.68602380  0.32115920  0.24526772  1
  H  H353  1  0.61638654  0.11895829  0.40574452  1
  H  H354  1  0.71603914  0.09373185  0.38681729  1
  C  C355  1  0.60895806  0.21415850  0.10037405  1
  H  H356  1  0.51930324  0.36720179  0.06254194  1
  H  H357  1  0.66693304  0.49416774  0.31574055  1
  H  H358  1  0.59120443  0.27680656  0.20506663  1
  C  C359  1  0.67747856  0.30845801  0.18937882  1
  H  H360  1  0.67383467  0.38672356  0.16779692  1
  H  H361  1  0.55517632  0.35658197  0.40498778  1
  H  H362  1  0.58419010  0.03254015  0.08427149  1
  H  H363  1  0.71617765  0.00639235  0.04614064  1
  C  C364  1  0.66851544  0.45892436  0.01489459  1
  H  H365  1  0.65710200  0.31223790  0.43162806  1
  C  C366  1  0.52503680  0.44289428  0.20167977  1
  C  C367  1  0.64206531  0.32445493  0.37746882  1
  H  H368  1  0.51298478  0.21016314  0.28821437  1
  C  C369  1  0.63273212  0.08840358  0.45537064  1
  Zn  Zn370  1  0.72772170  0.22725602  0.04193584  1
  C  C371  1  0.56633922  0.46328236  0.13837259  1
  C  C372  1  0.73112590  0.45117665  0.02947344  1
  H  H373  1  0.56054871  0.00947484  0.23465917  1
  C  C374  1  0.50248704  0.10575006  0.37049215  1
  H  H375  1  0.56320375  0.46074653  0.01874052  1
  C  C376  1  0.74994588  0.49332616  0.43439661  1
  H  H377  1  0.70786177  0.48534020  0.40989381  1
  H  H378  1  0.66516375  0.03235427  0.44642038  1
  C  C379  1  0.58223498  0.03459917  0.49526241  1
  C  C380  1  0.65274236  0.17883152  0.49676355  1
  C  C381  1  0.50159223  0.40576529  0.54140135  1
  H  H382  1  0.52771422  0.29454805  0.83042826  1
  H  H383  1  0.51805081  0.19299544  0.98229423  1
  H  H384  1  0.62909219  0.17511970  0.93247113  1
  N  N385  1  0.67273521  0.24317799  0.52782562  1
  H  H386  1  0.56808661  0.03016187  0.92861878  1
  H  H387  1  0.54806699  0.12918591  0.86384598  1
  Zn  Zn388  1  0.53632996  0.15708481  0.73362303  1
  H  H389  1  0.64796738  0.17935468  0.75567871  1
  C  C390  1  0.60686464  0.38154759  0.70480106  1
  C  C391  1  0.58176386  0.37597056  0.77283219  1
  N  N392  1  0.55181818  0.34465177  0.55517020  1
  N  N393  1  0.67876931  0.44074407  0.63838091  1
  H  H394  1  0.50705302  0.48765304  0.72148702  1
  C  C395  1  0.68632419  0.22665480  0.76503921  1
  C  C396  1  0.65415534  0.44297410  0.70141435  1
  C  C397  1  0.52631382  0.05320246  0.65869367  1
  H  H398  1  0.69613928  0.46288511  0.90775146  1
  C  C399  1  0.73648231  0.47851056  0.78409407  1
  H  H400  1  0.59302547  0.33268034  0.66105884  1
  N  N401  1  0.55036393  0.29814915  0.78673798  1
  H  H402  1  0.72279271  0.16964679  0.75942617  1
  H  H403  1  0.66401211  0.33547212  0.85322644  1
  H  H404  1  0.57874987  0.43628049  0.81487572  1
  C  C405  1  0.53309021  0.25551424  0.58025600  1
  Zn  Zn406  1  0.63537758  0.38604960  0.55464227  1
  H  H407  1  0.56195482  0.19420168  0.59875306  1
  H  H408  1  0.64984742  0.06972191  0.85636148  1
  N  N409  1  0.72909047  0.16278152  0.94407131  1
  C  C410  1  0.56319142  0.04755636  0.86978318  1
  H  H411  1  0.55674606  0.09543861  0.51409360  1
  C  C412  1  0.66328637  0.49836688  0.93748671  1
  C  C413  1  0.68593455  0.26858500  0.83900720  1
  H  H414  1  0.72940215  0.12111106  0.55718204  1
  C  C415  1  0.70999923  0.21097331  0.89115179  1
  C  C416  1  0.61284629  0.18308058  0.98766595  1
  H  H417  1  0.68253059  0.02272100  0.67986261  1
  H  H418  1  0.68506613  0.29440538  0.72626858  1
  H  H419  1  0.73714958  0.39585038  0.79100516  1
  C  C420  1  0.72589309  0.02360528  0.66111269  1
  C  C421  1  0.61959413  0.01564819  0.83562210  1
  H  H422  1  0.52453467  0.03780724  0.59925725  1
  H  H423  1  0.61734093  0.02312067  0.77777371  1
  H  H424  1  0.52740980  0.00039059  0.85120462  1
  H  H425  1  0.73689866  0.30872208  0.67958756  1
  C  C426  1  0.74901887  0.06629666  0.59825647  1
  H  H427  1  0.50031974  0.41414435  0.84433246  1
  H  H428  1  0.62283276  0.47855279  0.91260209  1
  H  H429  1  0.65783258  0.71141541  0.35531099  1
  C  C430  1  0.60496342  0.70253141  0.06335970  1
  H  H431  1  0.67265011  0.97450931  0.12146481  1
  H  H432  1  0.51879402  0.97207891  0.11118485  1
  H  H433  1  0.72612106  0.76522849  0.34155461  1
  C  C434  1  0.60071723  0.65911809  0.44335070  1
  H  H435  1  0.71312894  0.89203194  0.43997576  1
  C  C436  1  0.55966720  0.90514344  0.01710058  1
  C  C437  1  0.68379028  0.78345469  0.35827747  1
  C  C438  1  0.65842803  0.64995767  0.18250519  1
  H  H439  1  0.64680794  0.50972866  0.05183287  1
  N  N440  1  0.60241771  0.89351181  0.29530991  1
  H  H441  1  0.72424676  0.60775787  0.11898401  1
  N  N442  1  0.64052718  0.61411880  0.24638339  1
  Zn  Zn443  1  0.56194683  0.62072217  0.29352779  1
  C  C444  1  0.63179751  0.73227969  0.13770049  1
  C  C445  1  0.65613162  0.86632134  0.31043249  1
  H  H446  1  0.63502744  0.71034780  0.02280137  1
  C  C447  1  0.67915930  0.54494652  0.26820802  1
  H  H448  1  0.70224994  0.75918527  0.46494487  1
  H  H449  1  0.50288132  0.50285670  0.05948496  1
  H  H450  1  0.59618442  0.74241643  0.44127917  1
  H  H451  1  0.50136373  0.67247889  0.05517865  1
  N  N452  1  0.68893460  0.93572216  0.27937516  1
  H  H453  1  0.53440595  0.64182170  0.13918568  1
  H  H454  1  0.58779790  0.62308093  0.05950662  1
  H  H455  1  0.73332727  0.82903866  0.06911060  1
  H  H456  1  0.66002969  0.79174787  0.11492174  1
  C  C457  1  0.68476808  0.82867583  0.43541423  1
  N  N458  1  0.59154596  0.58975303  0.39326694  1
  H  H459  1  0.64629891  0.85080981  0.45833485  1
  N  N460  1  0.51610791  0.50015305  0.25914026  1
  Zn  Zn461  1  0.53867964  0.82555014  0.34317297  1
  H  H462  1  0.60205531  0.77821085  0.17219860  1
  N  N463  1  0.70610989  0.60002055  0.16710395  1
  H  H464  1  0.74439774  0.69132588  0.25152862  1
  H  H465  1  0.57314031  0.76208588  0.04916563  1
  C  C466  1  0.72153842  0.53572384  0.21713572  1
  H  H467  1  0.58669828  0.53827488  0.14544024  1
  N  N468  1  0.51404007  0.73290687  0.26719506  1
  C  C469  1  0.74291543  0.87599600  0.11548520  1
  H  H470  1  0.55935014  0.98074484  0.46488474  1
  C  C471  1  0.71837649  0.98406481  0.10295463  1
  H  H472  1  0.58692924  0.91602889  0.12956527  1
  H  H473  1  0.72652459  0.84216292  0.16537567  1
  C  C474  1  0.56110005  0.95715150  0.08969326  1
  C  C475  1  0.59866874  0.97407378  0.25354389  1
  N  N476  1  0.62215537  0.50031936  0.48342561  1
  H  H477  1  0.53894555  0.53559904  0.49366182  1
  H  H478  1  0.67193534  0.80226814  0.72704560  1
  Zn  Zn479  1  0.74748229  0.51665043  0.62067119  1
  C  C480  1  0.67690384  0.51176138  0.76179454  1
  H  H481  1  0.51558063  0.72367687  0.56680740  1
  C  C482  1  0.50019138  0.50119768  0.50688207  1
  Zn  Zn483  1  0.51335197  0.82781280  0.82639285  1
  H  H484  1  0.60335288  0.67023961  0.87690169  1
  C  C485  1  0.74403345  0.71148730  0.70836820  1
  H  H486  1  0.51674226  0.82774113  0.70842812  1
  H  H487  1  0.63252573  0.62440337  0.55342173  1
  H  H488  1  0.65333005  0.50782647  0.81231599  1
  C  C489  1  0.68077705  0.75729628  0.85761122  1
  H  H490  1  0.65806145  0.67974050  0.69290618  1
  H  H491  1  0.70338839  0.86049072  0.60115323  1
  C  C492  1  0.50631545  0.56626583  0.69900341  1
  C  C493  1  0.67831904  0.79074164  0.61020583  1
  N  N494  1  0.59563938  0.82541303  0.86079661  1
  H  H495  1  0.63535049  0.80906502  0.60041009  1
  C  C496  1  0.63330972  0.90078672  0.85036166  1
  C  C497  1  0.62403638  0.74130182  0.87508119  1
  H  H498  1  0.59623229  0.99569346  0.54576387  1
  N  N499  1  0.68461185  0.85786627  0.84508490  1
  H  H500  1  0.71621569  0.70707035  0.85543100  1
  C  C501  1  0.68433598  0.74701214  0.68872023  1
  H  H502  1  0.67860326  0.59183264  0.75150492  1
  H  H503  1  0.69094925  0.73738744  0.56976543  1
  H  H504  1  0.57668432  0.53711454  0.62996856  1
  C  C505  1  0.52541988  0.98839875  0.71434706  1
  C  C506  1  0.56127972  0.60182915  0.66405391  1
  N  N507  1  0.51799386  0.89247772  0.73504840  1
  H  H508  1  0.59186103  0.61925663  0.70686206  1
  H  H509  1  0.55518097  0.66759072  0.62709911  1
  H  H510  1  0.52508679  0.85407634  0.58645858  1
  H  H511  1  0.59465544  0.88412626  0.98335425  1
  H  H512  1  0.66525299  0.58184446  0.93758660  1
  C  C513  1  0.50758053  0.90636055  0.99457225  1
  C  C514  1  0.62084179  0.59858339  0.50106982  1
  C  C515  1  0.81230770  0.39859942  0.06661759  1
  H  H516  1  0.88659258  0.33333432  0.46703963  1
  N  N517  1  0.75979165  0.16017516  0.12211464  1
  H  H518  1  0.84224690  0.35151371  0.08771722  1
  C  C519  1  0.90413253  0.32846895  0.18315426  1
  C  C520  1  0.90009020  0.17020280  0.34120674  1
  H  H521  1  0.92720415  0.07122128  0.25040571  1
  H  H522  1  0.87839522  0.07762151  0.05182975  1
  C  C523  1  0.90112110  0.42606073  0.21066168  1
  C  C524  1  0.75280266  0.06405316  0.14673300  1
  H  H525  1  0.76659589  0.39319543  0.34144369  1
  C  C526  1  0.79302716  0.20452042  0.16986933  1
  H  H527  1  0.89529457  0.25162742  0.20650955  1
  C  C528  1  0.75134316  0.11755183  0.41787041  1
  C  C529  1  0.94461395  0.43694571  0.11388413  1
  C  C530  1  0.80382123  0.13721271  0.22895743  1
  N  N531  1  0.76303298  0.37040862  0.04461635  1
  C  C532  1  0.97829212  0.25483482  0.34021113  1
  N  N533  1  0.77544885  0.05477236  0.21295815  1
  N  N534  1  0.92777047  0.24400505  0.37212148  1
  C  C535  1  0.93762117  0.12526357  0.29222975  1
  H  H536  1  0.94584537  0.07087525  0.43026014  1
  C  C537  1  0.97258088  0.02062193  0.13696407  1
  C  C538  1  0.77400636  0.22451340  0.39673725  1
  Zn  Zn539  1  0.97011063  0.22485416  0.06223517  1
  H  H540  1  0.82205447  0.14873229  0.27999137  1
  N  N541  1  0.92956988  0.33593808  0.11950772  1
  N  N542  1  0.98435153  0.17870013  0.29011675  1
  H  H543  1  0.85833163  0.14973670  0.36123189  1
  C  C544  1  0.79949856  0.03977841  0.41482256  1
  C  C545  1  0.96874048  0.07852871  0.48205312  1
  H  H546  1  0.80338780  0.28841095  0.16323921  1
  C  C547  1  0.97316285  0.48338319  0.04743933  1
  H  H548  1  0.81913621  0.22762210  0.40495061  1
  N  N549  1  0.98756226  0.11362843  0.13554818  1
  N  N550  1  0.83919091  0.02608361  0.46769683  1
  H  H551  1  0.97187488  0.40002320  0.43539032  1
  H  H552  1  0.83254397  0.43850580  0.38580030  1
  H  H553  1  0.89088360  0.45289287  0.26552358  1
  H  H554  1  0.76148530  0.24382051  0.34309522  1
  C  C555  1  0.78686644  0.45918456  0.37152704  1
  N  N556  1  0.92598748  0.49660083  0.16725348  1
  H  H557  1  0.75514855  0.48342586  0.21106082  1
  H  H558  1  0.99516086  0.38876209  0.21789730  1
  H  H559  1  0.75258648  0.43752280  0.48086948  1
  H  H560  1  0.75853982  0.28635971  0.43107026  1
  H  H561  1  0.84865905  0.07286765  0.75602824  1
  N  N562  1  0.92473930  0.21825540  0.96986478  1
  H  H563  1  0.83570951  0.36630738  0.74095482  1
  N  N564  1  0.93902384  0.09643040  0.54144922  1
  C  C565  1  0.83802725  0.08202791  0.81089120  1
  H  H566  1  0.97704906  0.39893673  0.81825203  1
  C  C567  1  0.81959346  0.28636495  0.73658121  1
  C  C568  1  0.80699646  0.31519438  0.60355533  1
  C  C569  1  0.93511520  0.47205398  0.98067645  1
  C  C570  1  0.83878612  0.47472986  0.86349063  1
  N  N571  1  0.84388801  0.27297108  0.55870461  1
  C  C572  1  0.78052596  0.26927255  0.67093564  1
  H  H573  1  0.85550739  0.14350928  0.91759877  1
  N  N574  1  0.92165777  0.46717150  0.71414576  1
  H  H575  1  0.91249276  0.25467932  0.66764859  1
  H  H576  1  0.76742647  0.49376763  0.73953918  1
  C  C577  1  0.92139782  0.47861445  0.64373615  1
  N  N578  1  0.80290926  0.04658505  0.60538116  1
  C  C579  1  0.93989706  0.24311601  0.90635925  1
  H  H580  1  0.97956032  0.28517914  0.90061428  1
  H  H581  1  0.85282192  0.22925839  0.73637436  1
  Zn  Zn582  1  0.85799772  0.11529181  0.54803623  1
  C  C583  1  0.95836172  0.24255414  0.68022983  1
  C  C584  1  0.85883572  0.34727913  0.51450886  1
  H  H585  1  0.93338483  0.19233482  0.79630998  1
  H  H586  1  0.94628756  0.08266009  0.70414744  1
  C  C587  1  0.86672073  0.14054482  0.86182512  1
  H  H588  1  0.90751403  0.40475701  0.98022210  1
  N  N589  1  0.80120702  0.41699470  0.58691820  1
  H  H590  1  0.79801978  0.27091378  0.78981198  1
  C  C591  1  0.91440017  0.19542772  0.84915098  1
  C  C592  1  0.97360027  0.12847422  0.67121003  1
  H  H593  1  0.96349860  0.26766561  0.73557659  1
  H  H594  1  0.90445675  0.42204008  0.61202782  1
  C  C595  1  0.97695964  0.09886058  0.59362588  1
  C  C596  1  0.83185458  0.44155199  0.53165590  1
  H  H597  1  0.79170258  0.41368506  0.94993777  1
  C  C598  1  0.81507889  0.38343960  0.90281501  1
  H  H599  1  0.78983333  0.32940628  0.87013496  1
  H  H600  1  0.84989295  0.33068514  0.92332644  1
  H  H601  1  0.78160432  0.18343845  0.66810549  1
  H  H602  1  0.95908248  0.47172312  0.93220822  1
  Zn  Zn603  1  0.77687918  0.03336163  0.94063572  1
  H  H604  1  0.98223150  0.29116498  0.64611225  1
  N  N605  1  0.79961221  0.02226212  0.83948128  1
  H  H606  1  0.86530796  0.46429994  0.82096488  1
  H  H607  1  0.89392180  0.17758315  0.99222424  1
  H  H608  1  0.98179656  0.05328619  0.99940054  1
  H  H609  1  0.86055017  0.83582680  0.35880930  1
  H  H610  1  0.98734376  0.56275129  0.05765141  1
  C  C611  1  0.99032487  0.67359017  0.34518015  1
  N  N612  1  0.87685588  0.70289901  0.22562376  1
  C  C613  1  0.78981311  0.75334875  0.47898654  1
  C  C614  1  0.83414103  0.64472638  0.23075519  1
  H  H615  1  0.94046579  0.87921941  0.10043304  1
  C  C616  1  0.88928780  0.99499497  0.05597834  1
  C  C617  1  0.78929831  0.71510077  0.24139936  1
  H  H618  1  0.87054901  0.95775977  0.27996031  1
  C  C619  1  0.84812840  0.90733320  0.38895690  1
  C  C620  1  0.95171748  0.89622289  0.29590011  1
  H  H621  1  0.80417215  0.83206007  0.46634301  1
  H  H622  1  0.92554581  0.56106261  0.37119001  1
  C  C623  1  0.93297521  0.69936622  0.03918196  1
  H  H624  1  0.83399545  0.56263066  0.22040646  1
  N  N625  1  0.96528809  0.71274378  0.09672912  1
  N  N626  1  0.80926005  0.80795127  0.25043306  1
  H  H627  1  0.97353220  0.97144862  0.29926806  1
  C  C628  1  0.81040461  0.50750693  0.06702676  1
  Zn  Zn629  1  0.76902225  0.94125276  0.27600400  1
  H  H630  1  0.90792666  0.93621835  0.20156231  1
  H  H631  1  0.79005624  0.52169906  0.33261948  1
  N  N632  1  0.80748144  0.96966259  0.36566577  1
  C  C633  1  0.91539614  0.69600845  0.43896432  1
  Zn  Zn634  1  0.95553715  0.65312341  0.19237956  1
  C  C635  1  0.86921894  0.94503264  0.45511081  1
  N  N636  1  0.77989675  0.67928496  0.43123980  1
  H  H637  1  0.93886501  0.65596217  0.47989557  1
  C  C638  1  0.89773125  0.90468929  0.25209549  1
  C  C639  1  0.86491415  0.80185681  0.24143925  1
  H  H640  1  0.90343661  0.67074823  0.32488982  1
  H  H641  1  0.89183167  0.65769125  0.04303571  1
  C  C642  1  0.93111097  0.64489411  0.36611466  1
  H  H643  1  0.94502440  0.86648170  0.34905051  1
  H  H644  1  0.92535278  0.77695053  0.43861652  1
  H  H645  1  0.90148516  0.91554845  0.49103351  1
  H  H646  1  0.87123878  0.68800001  0.45415001  1
  N  N647  1  0.76272468  0.53930833  0.03926128  1
  C  C648  1  0.93408389  0.96170781  0.09558221  1
  H  H649  1  0.98249713  0.84062106  0.27291704  1
  H  H650  1  0.86379146  0.83364481  0.02927869  1
  C  C651  1  0.85986446  0.91432971  0.02140706  1
  H  H652  1  0.84292720  0.55632338  0.08947826  1
  C  C653  1  0.76204223  0.59719894  0.46801173  1
  H  H654  1  0.78925236  0.86817704  0.11946827  1
  H  H655  1  0.99933855  0.98937897  0.18030355  1
  H  H656  1  0.87109515  0.86125376  0.57796526  1
  H  H657  1  0.78872481  0.63863516  0.96008713  1
  H  H658  1  0.85598610  0.75378902  0.79448421  1
  H  H659  1  0.79945436  0.86415637  0.95494171  1
  H  H660  1  0.98375645  0.72995542  0.81971247  1
  N  N661  1  0.95286212  0.62179868  0.68559012  1
  C  C662  1  0.99882870  0.92077824  0.78634028  1
  N  N663  1  0.81089694  0.64847463  0.91416983  1
  N  N664  1  0.77528203  0.76688625  0.75485134  1
  C  C665  1  0.94412736  0.57529344  0.81536418  1
  C  C666  1  0.82174828  0.72128280  0.76489654  1
  C  C667  1  0.95465743  0.75020857  0.98049508  1
  H  H668  1  0.90243309  0.60950953  0.83216163  1
  H  H669  1  0.78089113  0.74980465  0.60225846  1
  C  C670  1  0.81507719  0.98027135  0.65963301  1
  H  H671  1  0.93629827  0.76369269  0.92775616  1
  H  H672  1  0.92835539  0.81269980  0.63576241  1
  N  N673  1  0.77275497  0.62719930  0.68676028  1
  C  C674  1  0.77753569  0.71526939  0.54795163  1
  H  H675  1  0.85523231  0.57703529  0.70809049  1
  C  C676  1  0.82186238  0.63437318  0.71764335  1
  C  C677  1  0.94353354  0.55547766  0.73856689  1
  H  H678  1  0.86797886  0.90614671  0.73426544  1
  H  H679  1  0.85662214  0.77835565  0.64931819  1
  N  N680  1  0.81779895  0.92305957  0.98012081  1
  C  C681  1  0.93889545  0.57634678  0.62505782  1
  C  C682  1  0.88287498  0.84079717  0.63186104  1
  C  C683  1  0.87159608  0.93567259  0.68145344  1
  C  C684  1  0.82445635  0.56930886  0.88998594  1
  H  H685  1  0.96083514  0.90794495  0.81487813  1
  H  H686  1  0.93761847  0.61781873  0.57545768  1
  N  N687  1  0.76652055  0.97550674  0.69290332  1
  H  H688  1  0.90858157  0.98801500  0.68029076  1
  Zn  Zn689  1  0.75413171  0.91160703  0.79241116  1
  N  N690  1  0.76053937  0.62012339  0.53850340  1
  H  H691  1  0.94777559  0.50315627  0.84443363  1
  H  H692  1  0.75142463  0.52051466  0.83072989  1
  C  C693  1  0.99538197  0.65109039  0.83217784  1
  H  H694  1  0.83072304  0.51526833  0.50321833  1
  H  H695  1  0.90346373  0.53239809  0.97735140  1
