# generated using pymatgen
data_Zn9H18(C27O19)2
_symmetry_space_group_name_H-M   'P 1'
_cell_length_a   15.37339862
_cell_length_b   22.68640315
_cell_length_c   21.56241710
_cell_angle_alpha   90.00000000
_cell_angle_beta   90.00000000
_cell_angle_gamma   90.00000000
_symmetry_Int_Tables_number   1
_chemical_formula_structural   Zn9H18(C27O19)2
_chemical_formula_sum   'Zn36 H72 C216 O152'
_cell_volume   7520.26208985
_cell_formula_units_Z   4
loop_
 _symmetry_equiv_pos_site_id
 _symmetry_equiv_pos_as_xyz
  1  'x, y, z'
loop_
 _atom_site_type_symbol
 _atom_site_label
 _atom_site_symmetry_multiplicity
 _atom_site_fract_x
 _atom_site_fract_y
 _atom_site_fract_z
 _atom_site_occupancy
  C  C0  1  0.30535668  0.05819396  0.03571953  1
  C  C1  1  0.41741441  0.17203965  0.16460670  1
  C  C2  1  0.45804231  0.43894251  0.08362577  1
  O  O3  1  0.16104701  0.12038335  0.08205241  1
  O  O4  1  0.24410720  0.45950855  0.11020641  1
  O  O5  1  0.45975797  0.42672472  0.19234429  1
  Zn  Zn6  1  0.12001869  0.18729361  0.14268810  1
  H  H7  1  0.42005004  0.35502084  0.11129711  1
  C  C8  1  0.47925576  0.46103228  0.14850650  1
  H  H9  1  0.36120135  0.16324053  0.06998009  1
  O  O10  1  0.26001333  0.19371094  0.16075947  1
  Zn  Zn11  1  0.27991954  0.29121495  0.15273490  1
  C  C12  1  0.12608176  0.39729283  0.11952787  1
  C  C13  1  0.32276066  0.16248870  0.18754259  1
  O  O14  1  0.33204470  0.27946148  0.05503056  1
  C  C15  1  0.09589850  0.33688605  0.12050327  1
  C  C16  1  0.38881725  0.36676324  0.01294668  1
  O  O17  1  0.14721221  0.29512975  0.13491970  1
  H  H18  1  0.28983070  0.04693386  0.08493065  1
  C  C19  1  0.42541665  0.38447664  0.07199837  1
  O  O20  1  0.06919083  0.13721580  0.22549957  1
  C  C21  1  0.21933563  0.41384466  0.13437005  1
  O  O22  1  0.27468675  0.38102489  0.16336892  1
  C  C23  1  0.41875505  0.17245377  0.09966244  1
  H  H24  1  0.10022994  0.48886866  0.10479180  1
  C  C25  1  0.46492609  0.48044306  0.03520291  1
  C  C26  1  0.07582129  0.44505198  0.10432949  1
  C  C27  1  0.37320553  0.02874657  0.00584417  1
  C  C28  1  0.48224434  0.18113183  0.20726748  1
  C  C29  1  0.18684033  0.13606644  0.02773929  1
  O  O30  1  0.34966601  0.27820696  0.24849562  1
  C  C31  1  0.34192557  0.30975909  0.00856523  1
  Zn  Zn32  1  0.34725479  0.42291078  0.24912909  1
  O  O33  1  0.31138299  0.13601391  0.23375247  1
  O  O34  1  0.25031549  0.49330479  0.24893649  1
  C  C35  1  0.00501640  0.32482525  0.10769188  1
  O  O36  1  0.15452188  0.17844352  0.00022839  1
  C  C37  1  0.26197267  0.10174392  0.00240466  1
  C  C38  1  0.32611906  0.26529381  0.35796728  1
  C  C39  1  0.28650014  0.28512187  0.41056901  1
  C  C40  1  0.46909308  0.46939497  0.34377566  1
  C  C41  1  0.37687369  0.17698900  0.40629556  1
  O  O42  1  0.20287402  0.03661750  0.46421693  1
  C  C43  1  0.33051646  0.19111797  0.45927360  1
  C  C44  1  0.28677642  0.24551000  0.46029247  1
  C  C45  1  0.37639831  0.21309776  0.35474446  1
  C  C46  1  0.09938693  0.44657592  0.30755710  1
  O  O47  1  0.27866892  0.34691817  0.29690350  1
  H  H48  1  0.41242689  0.19964823  0.31157463  1
  O  O49  1  0.38991417  0.46269438  0.33376311  1
  H  H50  1  0.25122291  0.32685256  0.40986531  1
  C  C51  1  0.42809680  0.12045830  0.40595800  1
  O  O52  1  0.02884359  0.33290420  0.31152326  1
  C  C53  1  0.31812477  0.29852680  0.29773437  1
  O  O54  1  0.46001792  0.10665452  0.35508998  1
  O  O55  1  0.43726038  0.09438231  0.45759775  1
  H  H56  1  0.47268879  0.18810398  0.25678722  1
  C  C57  1  0.02410712  0.43439789  0.34181185  1
  H  H58  1  0.13768990  0.41267218  0.28030620  1
  C  C59  1  0.00259964  0.14108542  0.25717015  1
  O  O60  1  0.00332387  0.17538211  0.30337189  1
  Zn  Zn61  1  0.15174883  0.06289845  0.55418812  1
  C  C62  1  0.48225241  0.28757635  0.50653788  1
  O  O63  1  0.41528940  0.13431189  0.67415363  1
  O  O64  1  0.09477186  0.13852419  0.60328981  1
  C  C65  1  0.08315335  0.37276798  0.71382146  1
  Zn  Zn66  1  0.13460114  0.22753818  0.62425049  1
  Zn  Zn67  1  0.16878860  0.38210825  0.57901351  1
  C  C68  1  0.38807038  0.18421698  0.66081450  1
  C  C69  1  0.38146581  0.37065808  0.53982074  1
  O  O70  1  0.33771175  0.21055364  0.69694460  1
  O  O71  1  0.05181550  0.41909208  0.70501102  1
  O  O72  1  0.17202269  0.36061369  0.68390201  1
  C  C73  1  0.48566406  0.19733316  0.56795519  1
  H  H74  1  0.38318689  0.06246759  0.73287975  1
  O  O75  1  0.31924179  0.38703215  0.57098821  1
  C  C76  1  0.42059463  0.31060357  0.54812488  1
  H  H77  1  0.18566316  0.32622437  0.70764935  1
  C  C78  1  0.39290446  0.27905618  0.59947672  1
  H  H79  1  0.34546872  0.29990082  0.63033344  1
  O  O80  1  0.22432886  0.22695182  0.55762137  1
  C  C81  1  0.42299476  0.22117352  0.60721708  1
  O  O82  1  0.12864749  0.46928964  0.55632702  1
  C  C83  1  0.02126940  0.12103730  0.63161565  1
  O  O84  1  0.03369510  0.34600998  0.55319575  1
  Zn  Zn85  1  0.05615459  0.02077274  0.72650866  1
  O  O86  1  0.19328981  0.31391303  0.51403205  1
  C  C87  1  0.23146708  0.26455340  0.51292340  1
  O  O88  1  0.01321896  0.27416525  0.62023986  1
  H  H89  1  0.35708267  0.43867369  0.74116044  1
  O  O90  1  0.02508006  0.10473513  0.68726049  1
  O  O91  1  0.20579979  0.02486165  0.63548241  1
  O  O92  1  0.15324625  0.25011539  0.73623838  1
  O  O93  1  0.40877310  0.32597016  0.73039910  1
  H  H94  1  0.00289523  0.17403610  0.51790923  1
  C  C95  1  0.04230619  0.32736998  0.74942144  1
  H  H96  1  0.32709930  0.16330846  0.50072302  1
  O  O97  1  0.41995481  0.40293550  0.50085072  1
  C  C98  1  0.06706198  0.49966635  0.57990647  1
  H  H99  1  0.34310752  0.00248291  0.59644398  1
  Zn  Zn100  1  0.17095909  0.25694300  0.94636101  1
  O  O101  1  0.34767430  0.27425232  0.80637918  1
  O  O102  1  0.05076303  0.14953443  0.85862459  1
  C  C103  1  0.30867925  0.42757972  0.77500401  1
  C  C104  1  0.40639344  0.11993478  0.86377740  1
  H  H105  1  0.24819731  0.15982724  0.92306844  1
  C  C106  1  0.28678769  0.12126484  0.94439412  1
  C  C107  1  0.03720970  0.24094640  0.80880398  1
  O  O108  1  0.14894314  0.03493187  0.79669573  1
  O  O109  1  0.07221108  0.42664169  0.93287284  1
  C  C110  1  0.40385683  0.04702565  0.94728140  1
  C  C111  1  0.36178466  0.09376690  0.91992041  1
  C  C112  1  0.35630064  0.32057724  0.77519828  1
  O  O113  1  0.37608228  0.17213925  0.84808515  1
  O  O114  1  0.16977544  0.20466356  0.86238473  1
  C  C115  1  0.19415395  0.46201779  0.83890028  1
  H  H116  1  0.15057044  0.49648928  0.85542965  1
  C  C117  1  0.44018254  0.46146029  0.97639688  1
  H  H118  1  0.22956723  0.31415099  0.86364728  1
  C  C119  1  0.23714643  0.35929244  0.84453184  1
  H  H120  1  0.37599653  0.40187636  0.91863929  1
  C  C121  1  0.25540386  0.47288757  0.79361435  1
  C  C122  1  0.11653087  0.38797341  0.91523832  1
  C  C123  1  0.18657494  0.40602979  0.86538921  1
  C  C124  1  0.30073946  0.36969414  0.79908722  1
  O  O125  1  0.11333236  0.33620176  0.93771338  1
  O  O126  1  0.47153692  0.09941175  0.83874248  1
  C  C127  1  0.08881005  0.19314124  0.84470234  1
  O  O128  1  0.31151748  0.28990703  0.95617057  1
  C  C129  1  0.39754948  0.40820369  0.96585657  1
  O  O130  1  0.45960666  0.18630616  0.97108472  1
  Zn  Zn131  1  0.26168268  0.19359451  0.78099260  1
  H  H132  1  0.46487713  0.02736727  0.92476760  1
  Zn  Zn133  1  0.41435978  0.24795738  0.90088562  1
  C  C134  1  0.22346854  0.05258765  0.78209924  1
  O  O135  1  0.43075050  0.49175027  0.86895570  1
  C  C136  1  0.29518013  0.01158084  0.79191515  1
  C  C137  1  0.08793730  0.27049504  0.76179607  1
  C  C138  1  0.37297418  0.02362546  0.76219255  1
  O  O139  1  0.23439072  0.10308435  0.75848723  1
  C  C140  1  0.20337109  0.85453720  0.08723862  1
  H  H141  1  0.07981901  0.82567013  0.17133518  1
  C  C142  1  0.02654296  0.67118296  0.03420059  1
  C  C143  1  0.10972741  0.68366997  0.05422820  1
  C  C144  1  0.11173044  0.83243368  0.07004166  1
  C  C145  1  0.12146897  0.67757099  0.12126812  1
  O  O146  1  0.22958230  0.86111428  0.14162268  1
  O  O147  1  0.49532589  0.96421590  0.01264054  1
  Zn  Zn148  1  0.03695388  0.71686701  0.24025543  1
  C  C149  1  0.06051329  0.82098182  0.12237747  1
  O  O150  1  0.41110843  0.96792273  0.09268266  1
  O  O151  1  0.19389702  0.67943573  0.15060150  1
  Zn  Zn152  1  0.36225719  0.89113629  0.14657015  1
  O  O153  1  0.46823189  0.82816702  0.12382432  1
  O  O154  1  0.43323606  0.82333577  0.02568654  1
  O  O155  1  0.05328914  0.66831206  0.15277404  1
  O  O156  1  0.26220001  0.70735969  0.02978719  1
  O  O157  1  0.38750764  0.90337891  0.23821098  1
  O  O158  1  0.25473195  0.85793803  0.04190653  1
  C  C159  1  0.42947153  0.98489604  0.03853813  1
  C  C160  1  0.47644044  0.80405683  0.07253731  1
  Zn  Zn161  1  0.27145526  0.62584911  0.20828758  1
  C  C162  1  0.18577315  0.69210063  0.01418366  1
  H  H163  1  0.48905041  0.52660774  0.04011689  1
  O  O164  1  0.49627819  0.70498632  0.20928880  1
  O  O165  1  0.49946602  0.51245704  0.15518373  1
  C  C166  1  0.45418893  0.66771263  0.23752364  1
  O  O167  1  0.37437355  0.66926936  0.24895074  1
  C  C168  1  0.08761020  0.82879329  0.00841564  1
  O  O169  1  0.12004638  0.96857034  0.49667982  1
  C  C170  1  0.21072961  0.52783211  0.28459869  1
  C  C171  1  0.10886079  0.79458228  0.34109754  1
  O  O172  1  0.12705484  0.76114685  0.29604634  1
  C  C173  1  0.25649318  0.95533471  0.36603990  1
  C  C174  1  0.27761400  0.91816662  0.31674394  1
  C  C175  1  0.35440948  0.93659577  0.27786330  1
  C  C176  1  0.12677566  0.50479120  0.31357139  1
  O  O177  1  0.23609405  0.57955671  0.29114820  1
  C  C178  1  0.22717009  0.86665381  0.30481252  1
  O  O179  1  0.05133880  0.78347819  0.37929462  1
  C  C180  1  0.14094323  0.88580673  0.39662697  1
  H  H181  1  0.10166970  0.86783350  0.43341018  1
  C  C182  1  0.18716990  0.93730062  0.40330305  1
  C  C183  1  0.16258822  0.85114143  0.34453943  1
  C  C184  1  0.08675753  0.54626942  0.35208328  1
  H  H185  1  0.11530009  0.58981436  0.35701965  1
  O  O186  1  0.38959183  0.98477391  0.29261957  1
  H  H187  1  0.25428928  0.83900555  0.26723593  1
  H  H188  1  0.38811434  0.57161232  0.29383851  1
  C  C189  1  0.45633078  0.57207076  0.29495165  1
  C  C190  1  0.17303475  0.98331527  0.45608554  1
  H  H191  1  0.28738614  0.99664249  0.37332024  1
  C  C192  1  0.01147699  0.52957508  0.38539888  1
  O  O193  1  0.00043475  0.63047829  0.41781128  1
  O  O194  1  0.33270351  0.67593466  0.67384175  1
  C  C195  1  0.30790247  0.63480774  0.63790131  1
  O  O196  1  0.35736372  0.60838822  0.60498900  1
  H  H197  1  0.21487552  0.53401529  0.59259630  1
  C  C198  1  0.20969840  0.62040981  0.63782946  1
  C  C199  1  0.17783920  0.56873478  0.61226094  1
  H  H200  1  0.18096233  0.69911815  0.68836386  1
  O  O201  1  0.13915390  0.95238740  0.68420354  1
  C  C202  1  0.15354740  0.65986139  0.66656017  1
  C  C203  1  0.39765147  0.80457539  0.73779085  1
  H  H204  1  0.24035249  0.87410006  0.72789355  1
  C  C205  1  0.37913890  0.85940648  0.70015175  1
  C  C206  1  0.44890297  0.88578601  0.66961490  1
  C  C207  1  0.43619945  0.93691637  0.63389258  1
  C  C208  1  0.01324579  0.69194475  0.70467038  1
  C  C209  1  0.35489620  0.96378104  0.62702816  1
  C  C210  1  0.28893366  0.93862700  0.66286632  1
  C  C211  1  0.02883751  0.59668746  0.64052905  1
  C  C212  1  0.20593585  0.97383601  0.66067679  1
  C  C213  1  0.30076724  0.88910806  0.70221514  1
  C  C214  1  0.08817300  0.55780340  0.61578985  1
  C  C215  1  0.06412117  0.64952079  0.66524815  1
  O  O216  1  0.04234114  0.73346145  0.73531200  1
  O  O217  1  0.47607608  0.79000383  0.73702081  1
  O  O218  1  0.49644817  0.99576746  0.55804695  1
  O  O219  1  0.34193492  0.53741527  0.73657102  1
  O  O220  1  0.29990071  0.71974925  0.92199438  1
  O  O221  1  0.45378454  0.56147513  0.93163598  1
  C  C222  1  0.27256908  0.53536021  0.76559157  1
  C  C223  1  0.16550780  0.68548698  0.94861823  1
  O  O224  1  0.23113076  0.57848030  0.78072479  1
  O  O225  1  0.42398937  0.84997775  0.89583702  1
  C  C226  1  0.01536372  0.66782140  0.96984210  1
  H  H227  1  0.22027753  0.95735289  0.85532234  1
  Zn  Zn228  1  0.31038760  0.67301982  0.77330975  1
  O  O229  1  0.43290704  0.64185914  0.78762924  1
  H  H230  1  0.07259121  0.66302790  0.87783373  1
  O  O231  1  0.21897964  0.69799335  0.84328438  1
  C  C232  1  0.23152101  0.69858928  0.89990404  1
  C  C233  1  0.44157287  0.98466923  0.77377118  1
  Zn  Zn234  1  0.30886873  0.78693512  0.98870030  1
  C  C235  1  0.35049500  0.92713911  0.84184035  1
  H  H236  1  0.12975401  0.84397090  0.96960735  1
  C  C237  1  0.28040687  0.96346196  0.83213052  1
  C  C238  1  0.35030135  0.87100200  0.88099609  1
  O  O239  1  0.28609932  0.84880264  0.90689507  1
  C  C240  1  0.08509822  0.67156299  0.92726504  1
  C  C241  1  0.43153946  0.93706634  0.81389152  1
  Zn  Zn242  1  0.45225041  0.55681566  0.80095770  1
  C  C243  1  0.44687766  0.50848424  0.92514589  1
  H  H244  1  0.48664244  0.90808284  0.82359392  1
  O  O245  1  0.34070039  0.77561441  0.76350128  1
  O  O246  1  0.02390980  0.80995241  0.88665770  1
  C  C247  1  0.00139381  0.81055476  0.99761565  1
  H  H248  1  0.63572768  0.19948203  0.09299047  1
  C  C249  1  0.75672944  0.07930030  0.18569458  1
  C  C250  1  0.50168900  0.18432565  0.07830570  1
  C  C251  1  0.57352400  0.19153395  0.11702733  1
  O  O252  1  0.84544982  0.10948481  0.03821078  1
  O  O253  1  0.71825286  0.08095274  0.06744303  1
  C  C254  1  0.66776153  0.43487986  0.03113588  1
  C  C255  1  0.90394791  0.11391519  0.16970362  1
  C  C256  1  0.79826753  0.09418486  0.08101864  1
  C  C257  1  0.56386470  0.18986230  0.18142473  1
  O  O258  1  0.85211760  0.47623697  0.06202460  1
  H  H259  1  0.69268335  0.06846402  0.16622372  1
  C  C260  1  0.64163418  0.37516977  0.03751301  1
  C  C261  1  0.82565851  0.09572682  0.14719351  1
  C  C262  1  0.96087193  0.26696237  0.11357115  1
  C  C263  1  0.52065668  0.18676871  0.00951766  1
  Zn  Zn264  1  0.78197454  0.28079342  0.17510118  1
  O  O265  1  0.65434480  0.29780700  0.11280092  1
  H  H266  1  0.69116050  0.46028707  0.06952694  1
  C  C267  1  0.92913238  0.48201438  0.07130291  1
  O  O268  1  0.87824631  0.26681725  0.10549342  1
  H  H269  1  0.88539895  0.37147397  0.07701637  1
  O  O270  1  0.71523822  0.37749355  0.14036771  1
  O  O271  1  0.70947831  0.20489423  0.19448094  1
  C  C272  1  0.66955570  0.35080779  0.10309061  1
  H  H273  1  0.95660513  0.12507891  0.13775292  1
  C  C274  1  0.95769747  0.37421351  0.08785188  1
  C  C275  1  0.63967155  0.20434317  0.22210035  1
  C  C276  1  0.91541379  0.12119654  0.23430212  1
  C  C277  1  0.98887987  0.43096895  0.08711949  1
  C  C278  1  0.76926383  0.08813362  0.24897813  1
  O  O279  1  0.99716914  0.22096921  0.13433282  1
  Zn  Zn280  1  0.92393123  0.25246547  0.32269382  1
  O  O281  1  0.63352805  0.21269759  0.27939425  1
  O  O282  1  0.91647936  0.35608901  0.36482376  1
  C  C283  1  0.69249887  0.07785174  0.29344328  1
  O  O284  1  0.63520779  0.00607824  0.46328949  1
  Zn  Zn285  1  0.68453639  0.18462526  0.36573383  1
  O  O286  1  0.77774692  0.21968447  0.43183743  1
  Zn  Zn287  1  0.51933273  0.45800572  0.47546121  1
  H  H288  1  0.85434231  0.11260341  0.32325786  1
  O  O289  1  0.58578462  0.24453381  0.42376006  1
  C  C290  1  0.84795817  0.20238310  0.45347162  1
  C  C291  1  0.57040266  0.20715946  0.46408746  1
  O  O292  1  0.60899935  0.15599372  0.46080716  1
  H  H293  1  0.63079701  0.49166406  0.35131951  1
  H  H294  1  0.92235539  0.45987689  0.40882325  1
  C  C295  1  0.98753202  0.36980311  0.34150333  1
  O  O296  1  0.75915174  0.44035518  0.45654372  1
  O  O297  1  0.91646175  0.21476434  0.42481747  1
  C  C298  1  0.84928131  0.10607037  0.27450670  1
  O  O299  1  0.62247545  0.05317001  0.27951202  1
  O  O300  1  0.70401993  0.09770842  0.34708972  1
  C  C301  1  0.97928767  0.47141126  0.37996003  1
  Zn  Zn302  1  0.51029614  0.01944148  0.32429561  1
  O  O303  1  0.84839874  0.28967371  0.25570949  1
  H  H304  1  0.88200221  0.32376667  0.25687017  1
  O  O305  1  0.51395304  0.43494889  0.37344120  1
  H  H306  1  0.51141829  0.31564276  0.47099722  1
  C  C307  1  0.71931126  0.41468740  0.49909708  1
  Zn  Zn308  1  0.55677223  0.07538395  0.50863021  1
  C  C309  1  0.93615897  0.12646682  0.59584498  1
  H  H310  1  0.86346195  0.07520338  0.66264696  1
  H  H311  1  0.65073109  0.35034021  0.59232926  1
  C  C312  1  0.86210651  0.10142356  0.62102823  1
  C  C313  1  0.78277307  0.11293813  0.59137865  1
  C  C314  1  0.98800442  0.31560593  0.58682349  1
  C  C315  1  0.77213255  0.37846263  0.54476063  1
  C  C316  1  0.84314595  0.29966658  0.63179119  1
  Zn  Zn317  1  0.54247880  0.35232596  0.72821473  1
  C  C318  1  0.69827514  0.08632685  0.61358976  1
  C  C319  1  0.86137430  0.16695986  0.51210387  1
  O  O320  1  0.69691734  0.05113638  0.65814190  1
  C  C321  1  0.89440670  0.33143418  0.59017911  1
  O  O322  1  0.53057307  0.04172682  0.71247080  1
  C  C323  1  0.69560082  0.27390004  0.67536776  1
  O  O324  1  0.63282525  0.10644121  0.58762292  1
  C  C325  1  0.75424609  0.30935877  0.63173345  1
  C  C326  1  0.86148232  0.36911135  0.54483029  1
  H  H327  1  0.87049380  0.27163146  0.66672924  1
  O  O328  1  0.61802845  0.28725391  0.67864223  1
  C  C329  1  0.71969912  0.34645947  0.58668351  1
  O  O330  1  0.72878765  0.23384184  0.70480082  1
  H  H331  1  0.56645430  0.48396129  0.58192452  1
  C  C332  1  0.78313823  0.14288899  0.53507792  1
  O  O333  1  0.53627315  0.43857330  0.68522537  1
  C  C334  1  0.94055571  0.15726951  0.54004635  1
  H  H335  1  0.72185710  0.15141191  0.51211081  1
  C  C336  1  0.56394027  0.48530128  0.70748017  1
  C  C337  1  0.50979773  0.22917948  0.51395987  1
  H  H338  1  0.51183289  0.15102777  0.57509416  1
  H  H339  1  0.90020534  0.38869339  0.50794588  1
  O  O340  1  0.63853887  0.41788277  0.50544335  1
  H  H341  1  0.59436217  0.21529743  0.74368377  1
  Zn  Zn342  1  0.51615146  0.12753061  0.74858616  1
  O  O343  1  0.99094380  0.48844685  0.57451305  1
  H  H344  1  0.84720585  0.03082697  0.77274534  1
  C  C345  1  0.73203082  0.08138160  0.85536969  1
  Zn  Zn346  1  0.71978413  0.20646276  0.80495924  1
  O  O347  1  0.68356543  0.09429632  0.90066824  1
  C  C348  1  0.55667292  0.33787846  0.87640096  1
  O  O349  1  0.53598714  0.36506869  0.82803081  1
  C  C350  1  0.91499947  0.29843653  0.80733308  1
  C  C351  1  0.82166051  0.31415241  0.82647238  1
  O  O352  1  0.76261276  0.11826144  0.81815120  1
  O  O353  1  0.79016573  0.36150347  0.81448792  1
  O  O354  1  0.53877370  0.28417088  0.88502138  1
  O  O355  1  0.60040436  0.19171037  0.99446984  1
  H  H356  1  0.59487712  0.45366159  0.87922530  1
  C  C357  1  0.59573015  0.37070345  0.92996032  1
  H  H358  1  0.92412379  0.21862250  0.86534400  1
  C  C359  1  0.75021187  0.01677814  0.84357527  1
  C  C360  1  0.95415585  0.24622849  0.82927481  1
  C  C361  1  0.65042574  0.45776369  0.97427213  1
  O  O362  1  0.77911077  0.27347148  0.85490249  1
  C  C363  1  0.61344418  0.42893318  0.92145319  1
  H  H364  1  0.91928295  0.37939631  0.75818006  1
  O  O365  1  0.59465031  0.19203544  0.78004886  1
  C  C366  1  0.95752171  0.33862794  0.77000566  1
  Zn  Zn367  1  0.68335555  0.12102050  0.98886604  1
  H  H368  1  0.60054445  0.29426180  0.99168596  1
  C  C369  1  0.61138883  0.34217245  0.98821507  1
  O  O370  1  0.55363794  0.49806353  0.76365322  1
  O  O371  1  0.78462076  0.63604578  0.11406747  1
  C  C372  1  0.94553710  0.79924206  0.04641788  1
  C  C373  1  0.54392311  0.75973015  0.05268714  1
  C  C374  1  0.97555503  0.80313161  0.10793461  1
  O  O375  1  0.84656663  0.77247675  0.16655583  1
  O  O376  1  0.71207427  0.68542076  0.18160128  1
  C  C377  1  0.66335574  0.69630340  0.07873486  1
  C  C378  1  0.67166940  0.68318228  0.01515671  1
  Zn  Zn379  1  0.82198393  0.57418643  0.03553451  1
  C  C380  1  0.72507623  0.67080393  0.12463790  1
  O  O381  1  0.95979931  0.53348854  0.06744691  1
  H  H382  1  0.60212122  0.75926999  0.14542568  1
  C  C383  1  0.60304291  0.74027309  0.09853869  1
  C  C384  1  0.92088740  0.79295713  0.16398723  1
  H  H385  1  0.87666955  0.78400185  0.03744576  1
  O  O386  1  0.96261100  0.79837517  0.21498499  1
  H  H387  1  0.97180316  0.65900127  0.06472730  1
  O  O388  1  0.69037847  0.55125687  0.01768114  1
  H  H389  1  0.71881004  0.65140343  0.00232263  1
  O  O390  1  0.59262040  0.96090008  0.37914214  1
  C  C391  1  0.59720706  0.62207026  0.27702904  1
  O  O392  1  0.77583059  0.53240940  0.33831315  1
  C  C393  1  0.97203239  0.57866608  0.42052425  1
  O  O394  1  0.54790999  0.54580867  0.46868424  1
  Zn  Zn395  1  0.78109010  0.53021531  0.42791124  1
  O  O396  1  0.67280735  0.59116049  0.46286546  1
  H  H397  1  0.67163132  0.86821092  0.36016012  1
  C  C398  1  0.69269235  0.86260362  0.40877737  1
  O  O399  1  0.92240453  0.69530994  0.27782355  1
  C  C400  1  0.63615623  0.96361329  0.42793121  1
  C  C401  1  0.59710150  0.52905253  0.32891600  1
  Zn  Zn402  1  0.95146838  0.70889098  0.37096814  1
  O  O403  1  0.82642914  0.73037176  0.40269007  1
  O  O404  1  0.74416450  0.77181873  0.33056918  1
  C  C405  1  0.76793336  0.76855902  0.38691907  1
  C  C406  1  0.74335183  0.81524395  0.42963117  1
  C  C407  1  0.68466456  0.90886589  0.45078925  1
  O  O408  1  0.90741942  0.56597092  0.45417999  1
  C  C409  1  0.64593789  0.57738106  0.30708734  1
  C  C410  1  0.74231267  0.57656502  0.30905716  1
  O  O411  1  0.78852637  0.61246331  0.28499915  1
  H  H412  1  0.62523948  0.66396517  0.25980654  1
  C  C413  1  0.61261556  0.57054212  0.49352844  1
  C  C414  1  0.50775091  0.61825953  0.27270796  1
  C  C415  1  0.50746093  0.52761135  0.32356764  1
  C  C416  1  0.77563124  0.81247326  0.48831889  1
  Zn  Zn417  1  0.80435120  0.71764118  0.25066137  1
  C  C418  1  0.65671238  0.62592504  0.65339690  1
  C  C419  1  0.61986783  0.57154636  0.56427970  1
  C  C420  1  0.67589549  0.68315833  0.68435653  1
  O  O421  1  0.93145592  0.68508513  0.70261050  1
  C  C422  1  0.65916340  0.62175619  0.58806454  1
  C  C423  1  0.60038041  0.53153066  0.66443234  1
  C  C424  1  0.59053656  0.52519932  0.59901306  1
  C  C425  1  0.51323259  0.96010796  0.59799647  1
  C  C426  1  0.71284298  0.90820663  0.51183540  1
  O  O427  1  0.58682759  0.93686110  0.60626178  1
  H  H428  1  0.68047277  0.65770956  0.55797343  1
  O  O429  1  0.93674724  0.97345548  0.71644810  1
  C  C430  1  0.63378161  0.58024882  0.69451153  1
  C  C431  1  0.79685029  0.85818895  0.59504739  1
  Zn  Zn432  1  0.83448774  0.76512810  0.69579645  1
  Zn  Zn433  1  0.69217283  0.95514331  0.66832883  1
  O  O434  1  0.58969014  0.96008368  0.74334964  1
  O  O435  1  0.72193888  0.72135608  0.65788078  1
  O  O436  1  0.78706779  0.90432013  0.62628799  1
  O  O437  1  0.84257272  0.81590129  0.61207908  1
  H  H438  1  0.95979803  0.58499708  0.64433620  1
  C  C439  1  0.52908293  0.99524732  0.74384292  1
  H  H440  1  0.69924747  0.94495131  0.54390243  1
  C  C441  1  0.75916322  0.85848236  0.53082280  1
  O  O442  1  0.64805864  0.69186975  0.73861604  1
  H  H443  1  0.81840682  0.77366128  0.50082666  1
  H  H444  1  0.51589596  0.86889570  0.67204432  1
  H  H445  1  0.64077115  0.58353657  0.74555824  1
  O  O446  1  0.94144655  0.87798378  0.73516437  1
  C  C447  1  0.91175774  0.92903771  0.74426794  1
  C  C448  1  0.84021403  0.94052004  0.79173286  1
  H  H449  1  0.66058765  0.98379137  0.91498603  1
  O  O450  1  0.63893045  0.86990550  0.94175369  1
  Zn  Zn451  1  0.52116264  0.70188864  0.77128849  1
  C  C452  1  0.62052723  0.69321454  0.90300881  1
  O  O453  1  0.84713822  0.77256153  0.78784249  1
  O  O454  1  0.68740039  0.67648677  0.87683966  1
  C  C455  1  0.97125715  0.80658898  0.93054088  1
  Zn  Zn456  1  0.80386519  0.73654176  0.86663240  1
  O  O457  1  0.90941739  0.67402668  0.89006562  1
  O  O458  1  0.89191786  0.80254842  0.92601584  1
  O  O459  1  0.66220591  0.54833327  0.91877294  1
  C  C460  1  0.81288211  0.99793280  0.80058895  1
  C  C461  1  0.72867588  0.91424028  0.86351905  1
  C  C462  1  0.68766817  0.86228614  0.89584252  1
  O  O463  1  0.70457705  0.81119212  0.87900776  1
  C  C464  1  0.61414737  0.70520145  0.97214702  1
  O  O465  1  0.55757466  0.71151929  0.87141487  1
  C  C466  1  0.71045379  0.97356818  0.87858666  1
  C  C467  1  0.79406066  0.89657136  0.82382697  1
  H  H468  1  0.80877507  0.84884803  0.81416591  1
  Zn  Zn469  1  0.97036668  0.80112037  0.78533129  1
  C  C470  1  0.92347664  0.66325619  0.94481764  1
  O  O471  1  0.86485668  0.64924957  0.98283608  1
  C  C472  1  0.67007352  0.52340262  0.96796031  1
  H  H473  1  0.50294289  0.76433574  0.95819169  1
  Zn  Zn474  1  0.50980234  0.87807116  0.96366540  1
  C  C475  1  0.54666877  0.74194980  0.99056701  1
