# generated using pymatgen
data_Zn6Cu3H18(C27O19)2
_symmetry_space_group_name_H-M   'P 1'
_cell_length_a   15.94142158
_cell_length_b   16.33817655
_cell_length_c   14.41337033
_cell_angle_alpha   90.00000000
_cell_angle_beta   90.00000000
_cell_angle_gamma   90.00000000
_symmetry_Int_Tables_number   1
_chemical_formula_structural   Zn6Cu3H18(C27O19)2
_chemical_formula_sum   'Zn12 Cu6 H36 C108 O76'
_cell_volume   3754.01649955
_cell_formula_units_Z   2
loop_
 _symmetry_equiv_pos_site_id
 _symmetry_equiv_pos_as_xyz
  1  'x, y, z'
loop_
 _atom_site_type_symbol
 _atom_site_label
 _atom_site_symmetry_multiplicity
 _atom_site_fract_x
 _atom_site_fract_y
 _atom_site_fract_z
 _atom_site_occupancy
  O  O0  1  0.06486253  0.32760175  0.21912313  1
  O  O1  1  0.05629137  0.07186915  0.38688170  1
  H  H2  1  0.15357222  0.12167355  0.11842562  1
  C  C3  1  0.09274539  0.14414125  0.08892913  1
  C  C4  1  0.05304760  0.21309237  0.11678696  1
  Zn  Zn5  1  0.13659505  0.16187102  0.38128988  1
  C  C6  1  0.09363094  0.25961191  0.19536506  1
  O  O7  1  0.14702678  0.21965588  0.24046298  1
  O  O8  1  0.07565302  0.25567128  0.46842328  1
  C  C9  1  0.05263145  0.10036430  0.01522880  1
  O  O10  1  0.23816363  0.37473011  0.44505887  1
  C  C11  1  0.00455565  0.28658246  0.45258897  1
  O  O12  1  0.17142621  0.00853840  0.01452006  1
  C  C13  1  0.18477505  0.15093792  0.75658898  1
  C  C14  1  0.17813202  0.12270240  0.59554323  1
  H  H15  1  0.15864254  0.15510762  0.82897530  1
  C  C16  1  0.13626056  0.13619145  0.67820838  1
  C  C17  1  0.09592153  0.02731487  0.98013490  1
  C  C18  1  0.02983968  0.40414883  0.56428465  1
  H  H19  1  0.13712563  0.10976135  0.53336551  1
  H  H20  1  0.09495692  0.38422455  0.57156290  1
  C  C21  1  0.04401197  0.13622982  0.68630247  1
  O  O22  1  0.00341305  0.12753363  0.61314955  1
  O  O23  1  0.00561406  0.14296065  0.76313349  1
  Zn  Zn24  1  0.00353499  0.04605187  0.50490935  1
  C  C25  1  0.01816998  0.59580789  0.39212037  1
  C  C26  1  0.22193651  0.94837821  0.28811575  1
  C  C27  1  0.05722494  0.66666105  0.42501242  1
  C  C28  1  0.02499575  0.74711299  0.39930232  1
  O  O29  1  0.05845986  0.81017719  0.43016799  1
  Zn  Zn30  1  0.03262198  0.98337658  0.28839656  1
  Zn  Zn31  1  0.19709586  0.83265560  0.45664437  1
  O  O32  1  0.15392850  0.94175097  0.24208090  1
  O  O33  1  0.21843990  0.94376942  0.37437771  1
  C  C34  1  0.13421977  0.65367576  0.47425203  1
  H  H35  1  0.03736170  0.53294977  0.41164895  1
  O  O36  1  0.15522873  0.57757504  0.48003522  1
  C  C37  1  0.05744291  0.86235772  0.72455235  1
  C  C38  1  0.09297141  0.76622183  0.84465502  1
  C  C39  1  0.11608339  0.80943828  0.76320261  1
  O  O40  1  0.17919873  0.71094241  0.50839928  1
  O  O41  1  0.13853489  0.66895362  0.95450645  1
  C  C42  1  0.15342782  0.71079417  0.88435133  1
  O  O43  1  0.14907230  0.88925140  0.59683999  1
  H  H44  1  0.17388354  0.79598134  0.73173208  1
  O  O45  1  0.02254919  0.93487337  0.58458453  1
  C  C46  1  0.08013298  0.90042317  0.63104405  1
  O  O47  1  0.01683160  0.58428239  0.70515148  1
  C  C48  1  0.05028364  0.52882624  0.66628924  1
  C  C49  1  0.01357082  0.78124450  0.88735337  1
  Cu  Cu50  1  0.20443645  0.51338857  0.57649345  1
  O  O51  1  0.06589460  0.98812284  0.91800887  1
  O  O52  1  0.13036751  0.51731070  0.67565265  1
  O  O53  1  0.23604290  0.70227390  0.84692448  1
  C  C54  1  0.42465723  0.48317144  0.38749605  1
  H  H55  1  0.31427464  0.31901841  0.30351699  1
  C  C56  1  0.36254633  0.36492148  0.30552025  1
  O  O57  1  0.38674176  0.24266078  0.15862003  1
  C  C58  1  0.49895275  0.41136281  0.26091705  1
  C  C59  1  0.36453489  0.42287599  0.37550003  1
  Zn  Zn60  1  0.31106313  0.24353766  0.03354745  1
  Cu  Cu61  1  0.46883694  0.17770143  0.44100451  1
  C  C62  1  0.29117782  0.42626419  0.44292227  1
  C  C63  1  0.44077375  0.29236788  0.17353580  1
  C  C64  1  0.43268603  0.35655571  0.24645809  1
  C  C65  1  0.44439118  0.02120064  0.25411336  1
  H  H66  1  0.32762983  0.11172666  0.14082863  1
  O  O67  1  0.28697363  0.11856355  0.09193824  1
  O  O68  1  0.26195955  0.13575056  0.41407355  1
  O  O69  1  0.31715241  0.37341232  0.01572235  1
  H  H70  1  0.36699293  0.00121356  0.37344564  1
  H  H71  1  0.47530759  0.38995252  0.01603693  1
  C  C72  1  0.49350714  0.47349335  0.32783397  1
  O  O73  1  0.28786638  0.49299042  0.49533724  1
  C  C74  1  0.29647864  0.12612034  0.48923521  1
  O  O75  1  0.37806002  0.11698760  0.49103796  1
  C  C76  1  0.45618128  0.00214757  0.15935343  1
  H  H77  1  0.38596376  0.13115251  0.66214071  1
  O  O78  1  0.39696276  0.16002331  0.82599977  1
  C  C79  1  0.47422217  0.42121019  0.94529130  1
  C  C80  1  0.31641631  0.42105454  0.95059905  1
  O  O81  1  0.28112743  0.16381301  0.92116106  1
  C  C82  1  0.39913887  0.44333906  0.90515815  1
  C  C83  1  0.32186016  0.15538965  0.83310852  1
  Cu  Cu84  1  0.26865535  0.06512557  0.98218356  1
  C  C85  1  0.31685570  0.13896803  0.66347570  1
  C  C86  1  0.27276171  0.14801401  0.74760780  1
  O  O87  1  0.25183799  0.46495224  0.92906085  1
  C  C88  1  0.26593513  0.12842885  0.58611901  1
  C  C89  1  0.40030647  0.49486072  0.82653756  1
  O  O90  1  0.40607964  0.83888117  0.43151826  1
  O  O91  1  0.31742602  0.66785832  0.06075793  1
  H  H92  1  0.32359350  0.73795626  0.20743409  1
  C  C93  1  0.38777403  0.75321261  0.20143889  1
  C  C94  1  0.39199977  0.69060665  0.04565958  1
  C  C95  1  0.37501047  0.80112584  0.36630319  1
  O  O96  1  0.30079747  0.77421025  0.36753950  1
  C  C97  1  0.42595235  0.79075248  0.27802729  1
  C  C98  1  0.30312381  0.97204047  0.24449953  1
  C  C99  1  0.43702552  0.73592058  0.12489974  1
  H  H100  1  0.42411340  0.52857362  0.44200430  1
  C  C101  1  0.31045015  0.95947213  0.14990723  1
  C  C102  1  0.39968720  0.96320373  0.00724535  1
  C  C103  1  0.38878884  0.97223227  0.10835763  1
  H  H104  1  0.25666763  0.93285576  0.10842577  1
  C  C105  1  0.37190841  0.99686290  0.29810373  1
  H  H106  1  0.26991388  0.70476211  0.90821690  1
  O  O107  1  0.42525806  0.59531781  0.66477968  1
  O  O108  1  0.33887273  0.97584809  0.95284490  1
  H  H109  1  0.34344390  0.51844040  0.79170701  1
  C  C110  1  0.48278336  0.55813838  0.69475106  1
  O  O111  1  0.47090183  0.94322274  0.98077664  1
  O  O112  1  0.42662876  0.67752516  0.97243994  1
  C  C113  1  0.47722684  0.51020950  0.78609045  1
  Zn  Zn114  1  0.25319669  0.59018714  0.96802867  1
  C  C115  1  0.70456034  0.20131494  0.46520152  1
  H  H116  1  0.66892681  0.17309306  0.40695268  1
  O  O117  1  0.69837742  0.33776155  0.24032856  1
  C  C118  1  0.60825583  0.09729678  0.03737309  1
  O  O119  1  0.62330486  0.36545844  0.01474999  1
  C  C120  1  0.58589426  0.29542063  0.47000158  1
  H  H121  1  0.55443078  0.40966929  0.21399776  1
  C  C122  1  0.67792184  0.18528760  0.15352519  1
  O  O123  1  0.58086407  0.06499257  0.25727560  1
  H  H124  1  0.62355145  0.22683200  0.16360375  1
  O  O125  1  0.51430286  0.08064155  0.38978510  1
  O  O126  1  0.54796887  0.24297404  0.41331363  1
  C  C127  1  0.68037355  0.11444358  0.09789190  1
  O  O128  1  0.51321567  0.29469630  0.13116409  1
  Zn  Zn129  1  0.73967814  0.45515831  0.30541708  1
  C  C130  1  0.51586729  0.05915148  0.30430192  1
  H  H131  1  0.51438850  0.02220389  0.12419497  1
  O  O132  1  0.55275603  0.14924554  0.03780050  1
  O  O133  1  0.73363507  0.44347901  0.45438983  1
  Cu  Cu134  1  0.58641060  0.25773508  0.03192707  1
  O  O135  1  0.54794585  0.35175949  0.49963687  1
  C  C136  1  0.74979435  0.06387532  0.08203570  1
  C  C137  1  0.71487896  0.30699329  0.57861509  1
  H  H138  1  0.64480603  0.08863101  0.53800068  1
  C  C139  1  0.55070737  0.44142400  0.90247081  1
  C  C140  1  0.62518985  0.04632052  0.71819298  1
  H  H141  1  0.69001544  0.36130651  0.61626647  1
  C  C142  1  0.55478586  0.48945223  0.82192901  1
  O  O143  1  0.69526790  0.42886497  0.90490851  1
  C  C144  1  0.62888832  0.40705717  0.93850177  1
  O  O145  1  0.61354555  0.03353245  0.98292049  1
  C  C146  1  0.64641816  0.02172121  0.54617891  1
  O  O147  1  0.62423752  0.11794885  0.71848721  1
  H  H148  1  0.61023499  0.49635540  0.78145063  1
  O  O149  1  0.61669182  0.00593313  0.79674185  1
  C  C150  1  0.67115995  0.27174935  0.50743894  1
  C  C151  1  0.55598299  0.80552626  0.19519766  1
  C  C152  1  0.51834424  0.76217445  0.12112652  1
  O  O153  1  0.66949948  0.87672769  0.26451666  1
  H  H154  1  0.55710217  0.74821443  0.05741186  1
  C  C155  1  0.56474355  0.53229195  0.33837117  1
  H  H156  1  0.53309583  0.84860116  0.33988360  1
  O  O157  1  0.62294668  0.52638227  0.28157254  1
  H  H158  1  0.68632284  0.84871593  0.41725146  1
  C  C159  1  0.64107544  0.84224575  0.19267390  1
  O  O160  1  0.68322247  0.84471981  0.11800838  1
  C  C161  1  0.66587195  0.96902728  0.47450125  1
  O  O162  1  0.56692650  0.58305344  0.40431972  1
  C  C163  1  0.67140165  0.88443700  0.48032161  1
  C  C164  1  0.51032837  0.81368243  0.27697999  1
  Zn  Zn165  1  0.68864182  0.99833801  0.32349804  1
  C  C166  1  0.66095562  0.85285921  0.57229826  1
  Zn  Zn167  1  0.62227440  0.59275638  0.54588078  1
  H  H168  1  0.63807742  0.87975441  0.71947671  1
  C  C169  1  0.64802447  0.90456245  0.64864639  1
  O  O170  1  0.65305818  0.73586965  0.66153845  1
  O  O171  1  0.67661591  0.70920190  0.51660734  1
  C  C172  1  0.66323253  0.76079655  0.58191365  1
  C  C173  1  0.63731155  0.98861904  0.63601192  1
  O  O174  1  0.74328774  0.53630219  0.56448036  1
  O  O175  1  0.55000589  0.54470253  0.64806449  1
  Cu  Cu176  1  0.54162710  0.99500489  0.88913596  1
  C  C177  1  0.93381232  0.18894384  0.00163077  1
  C  C178  1  0.78469600  0.17728282  0.49197749  1
  H  H179  1  0.84922078  0.35198866  0.44197584  1
  C  C180  1  0.81610603  0.10196838  0.44544406  1
  O  O181  1  0.93978803  0.46391660  0.33033173  1
  Zn  Zn182  1  0.93999953  0.34286989  0.26496616  1
  O  O183  1  0.81815248  0.30195900  0.29502152  1
  O  O184  1  0.95796330  0.04843847  0.18345241  1
  O  O185  1  0.96072993  0.26561707  0.38484844  1
  C  C186  1  0.97099484  0.23537899  0.07922921  1
  H  H187  1  0.88719914  0.17381886  0.22053659  1
  C  C188  1  0.82840893  0.15714376  0.18512740  1
  O  O189  1  0.77759310  0.08452664  0.37024174  1
  C  C190  1  0.81895571  0.08399026  0.13576282  1
  O  O191  1  0.93469712  0.29545058  0.11132902  1
  C  C192  1  0.89463447  0.02630909  0.14020518  1
  C  C193  1  0.75446238  0.20390431  0.19365853  1
  H  H194  1  0.75262137  0.00936927  0.03522064  1
  C  C195  1  0.75345320  0.28511164  0.24622754  1
  O  O196  1  0.86507357  0.05057956  0.47886881  1
  C  C197  1  0.89285827  0.38587281  0.48894087  1
  O  O198  1  0.80363308  0.36080149  0.73789183  1
  H  H199  1  0.89644958  0.18471515  0.58243743  1
  C  C200  1  0.83282804  0.21011121  0.56284645  1
  C  C201  1  0.85842352  0.21057756  0.95373404  1
  C  C202  1  0.86367857  0.45454218  0.53449371  1
  O  O203  1  0.90104137  0.26707274  0.72488611  1
  O  O204  1  0.83980901  0.16015206  0.88626133  1
  Cu  Cu205  1  0.89460351  0.16751102  0.78368620  1
  O  O206  1  0.81173011  0.27160121  0.97230666  1
  C  C207  1  0.77508074  0.48313810  0.51532646  1
  C  C208  1  0.83396705  0.30284746  0.69411019  1
  C  C209  1  0.79062412  0.27238607  0.60998803  1
  H  H210  1  0.95456694  0.08227323  0.91419171  1
  Zn  Zn211  1  0.81576928  0.37772386  0.88197862  1
  C  C212  1  0.97718648  0.12046521  0.97130440  1
  O  O213  1  0.89866464  0.46869091  0.96991365  1
  C  C214  1  0.91329243  0.49596948  0.59802652  1
  C  C215  1  0.97603800  0.36216678  0.50295762  1
  C  C216  1  0.99793804  0.47109925  0.60788467  1
  O  O217  1  0.93729275  0.89194500  0.31940038  1
  C  C218  1  0.91332888  0.68093870  0.30761313  1
  C  C219  1  0.91675472  0.82245803  0.29374606  1
  H  H220  1  0.85789437  0.68763496  0.26186193  1
  C  C221  1  0.95354678  0.75131112  0.33539437  1
  O  O222  1  0.86137662  0.80978939  0.23027595  1
  C  C223  1  0.94327036  0.60406717  0.34133935  1
  Zn  Zn224  1  0.81585865  0.84481294  0.10007194  1
  O  O225  1  0.88606361  0.95944248  0.10035908  1
  C  C226  1  0.90366078  0.52890932  0.31147135  1
  O  O227  1  0.83465357  0.53262536  0.26918556  1
  O  O228  1  0.83558063  0.57348752  0.05728576  1
  C  C229  1  0.86751640  0.52114110  0.01568281  1
  H  H230  1  0.89113461  0.55258269  0.63634847  1
  C  C231  1  0.96119642  0.83595310  0.84782552  1
  C  C232  1  0.87827317  0.85202959  0.89856727  1
  H  H233  1  0.93688786  0.91961731  0.73360618  1
  O  O234  1  0.82517919  0.89528279  0.87114287  1
  C  C235  1  0.98183733  0.87864135  0.76659509  1
  O  O236  1  0.86903540  0.81026574  0.97515856  1
  H  H237  1  0.99658669  0.75041839  0.95270318  1
