# generated using pymatgen
data_Zn4H12C24O13
_symmetry_space_group_name_H-M   'P 1'
_cell_length_a   26.51541481
_cell_length_b   26.54359987
_cell_length_c   26.10626581
_cell_angle_alpha   90.00000000
_cell_angle_beta   90.00000000
_cell_angle_gamma   90.00000000
_symmetry_Int_Tables_number   1
_chemical_formula_structural   Zn4H12C24O13
_chemical_formula_sum   'Zn32 H96 C192 O104'
_cell_volume   18373.97001255
_cell_formula_units_Z   8
loop_
 _symmetry_equiv_pos_site_id
 _symmetry_equiv_pos_as_xyz
  1  'x, y, z'
loop_
 _atom_site_type_symbol
 _atom_site_label
 _atom_site_symmetry_multiplicity
 _atom_site_fract_x
 _atom_site_fract_y
 _atom_site_fract_z
 _atom_site_occupancy
  Zn  Zn0  1  0.21107861  0.20947221  0.22996263  1
  O  O1  1  0.22124847  0.24550196  0.15666035  1
  H  H2  1  0.18613059  0.22633655  0.08024260  1
  H  H3  1  0.22115285  0.04810983  0.18317788  1
  H  H4  1  0.05421682  0.18074258  0.22769017  1
  C  C5  1  0.03006158  0.21328803  0.23768969  1
  O  O6  1  0.23451365  0.12999559  0.22696122  1
  C  C7  1  0.22932405  0.02454490  0.21602294  1
  C  C8  1  0.21833671  0.23577420  0.05400676  1
  C  C9  1  0.21582278  0.23736239  0.00111901  1
  C  C10  1  0.26113026  0.25914561  0.13484650  1
  O  O11  1  0.27051086  0.36976183  0.24961392  1
  C  C12  1  0.26161585  0.25682996  0.07854307  1
  H  H13  1  0.33863040  0.28237102  0.07008139  1
  C  C14  1  0.30532897  0.26846142  0.04965342  1
  O  O15  1  0.29878105  0.27546961  0.16090600  1
  Zn  Zn16  1  0.29457417  0.29159029  0.24034409  1
  H  H17  1  0.27281735  0.45046153  0.21082862  1
  C  C18  1  0.26000433  0.47120636  0.24391332  1
  O  O19  1  0.12987936  0.21608713  0.25328219  1
  C  C20  1  0.24982816  0.10320447  0.26274070  1
  C  C21  1  0.24755436  0.04748306  0.26203583  1
  C  C22  1  0.26746688  0.02079055  0.30432163  1
  C  C23  1  0.25415320  0.24321737  0.41607085  1
  O  O24  1  0.29198252  0.21976427  0.39723426  1
  O  O25  1  0.26507536  0.12359606  0.30482702  1
  H  H26  1  0.28375817  0.04147850  0.33711892  1
  Zn  Zn27  1  0.29870832  0.19651475  0.31809929  1
  O  O28  1  0.37503402  0.19266433  0.29333543  1
  H  H29  1  0.46834479  0.15219930  0.28460640  1
  C  C30  1  0.48254543  0.18806078  0.27358667  1
  H  H31  1  0.32817935  0.21467719  0.48533950  1
  C  C32  1  0.45476650  0.23346342  0.27372456  1
  C  C33  1  0.39841728  0.23323125  0.28319267  1
  O  O34  1  0.25391321  0.24530005  0.27860354  1
  C  C35  1  0.05147266  0.25533508  0.25941028  1
  C  C36  1  0.10766649  0.25586126  0.26731608  1
  O  O37  1  0.21579804  0.25088575  0.39024460  1
  O  O38  1  0.13235478  0.29229073  0.28387173  1
  O  O39  1  0.24067906  0.36418536  0.32913480  1
  H  H40  1  0.18355305  0.29074448  0.46977399  1
  H  H41  1  0.03634642  0.33078332  0.29086425  1
  Zn  Zn42  1  0.20651799  0.28854193  0.31677634  1
  H  H43  1  0.22464708  0.44653673  0.36909626  1
  C  C44  1  0.02040172  0.29789458  0.27306111  1
  C  C45  1  0.23238201  0.46896972  0.33446501  1
  C  C46  1  0.24825757  0.44540103  0.28870504  1
  C  C47  1  0.21535036  0.28015698  0.49272810  1
  C  C48  1  0.25716685  0.25597988  0.47178485  1
  C  C49  1  0.25361851  0.38939303  0.28940601  1
  O  O50  1  0.37418173  0.27254268  0.27367830  1
  C  C51  1  0.47963099  0.27902866  0.26343397  1
  H  H52  1  0.45613540  0.31300145  0.26149148  1
  C  C53  1  0.27451106  0.03952017  0.72174892  1
  H  H54  1  0.28516087  0.06049512  0.68687217  1
  Zn  Zn55  1  0.29643816  0.22019741  0.72920066  1
  H  H56  1  0.45774230  0.18921350  0.72714988  1
  H  H57  1  0.32672148  0.23718391  0.57542799  1
  C  C58  1  0.29666253  0.24895909  0.55264027  1
  C  C59  1  0.29841959  0.23888164  0.50028572  1
  O  O60  1  0.27522517  0.14467120  0.72552318  1
  O  O61  1  0.38089384  0.22249126  0.74811859  1
  C  C62  1  0.47994547  0.22502830  0.73442306  1
  H  H63  1  0.17570778  0.29648479  0.56485940  1
  H  H64  1  0.21995242  0.46080441  0.70419901  1
  C  C65  1  0.23591933  0.48116120  0.73547385  1
  Zn  Zn66  1  0.21305487  0.30488422  0.73770101  1
  O  O67  1  0.21035971  0.28826994  0.65392258  1
  C  C68  1  0.21113839  0.28306338  0.54560164  1
  C  C69  1  0.24920493  0.27178925  0.63357446  1
  O  O70  1  0.24435473  0.38017255  0.73915921  1
  C  C71  1  0.03319536  0.29661205  0.74156505  1
  H  H72  1  0.05755302  0.32706422  0.72843262  1
  C  C73  1  0.25344095  0.27107876  0.57541072  1
  O  O74  1  0.28852076  0.25972977  0.65943911  1
  Zn  Zn75  1  0.20723544  0.21234437  0.81617902  1
  H  H76  1  0.05019318  0.18155724  0.79857472  1
  H  H77  1  0.24311312  0.06227413  0.84678688  1
  O  O78  1  0.13638020  0.22057203  0.78568393  1
  C  C79  1  0.03145099  0.21278013  0.78099019  1
  H  H80  1  0.17975660  0.22842960  0.98019329  1
  O  O81  1  0.21386122  0.24347242  0.89230527  1
  O  O82  1  0.25338014  0.14724209  0.80700213  1
  C  C83  1  0.25048467  0.04004556  0.81130490  1
  C  C84  1  0.26510710  0.12337322  0.76655716  1
  C  C85  1  0.26315797  0.06598056  0.76553509  1
  C  C86  1  0.05610358  0.25649501  0.76505205  1
  C  C87  1  0.11324456  0.25958189  0.77326316  1
  O  O88  1  0.13366929  0.29885507  0.75620762  1
  Zn  Zn89  1  0.29966011  0.29858161  0.81647244  1
  O  O90  1  0.29407629  0.26207577  0.89139417  1
  C  C91  1  0.25776531  0.40237694  0.78013254  1
  C  C92  1  0.40061887  0.26372389  0.76068403  1
  C  C93  1  0.45812649  0.26868484  0.75333584  1
  C  C94  1  0.48637445  0.31296968  0.76278671  1
  O  O95  1  0.27493290  0.37801574  0.81703330  1
  C  C96  1  0.27214401  0.48320585  0.82377733  1
  O  O97  1  0.25355689  0.26037030  0.77464321  1
  O  O98  1  0.37500175  0.29724043  0.78091558  1
  H  H99  1  0.33890167  0.27560095  0.97145898  1
  C  C100  1  0.25960990  0.25180519  0.97275204  1
  C  C101  1  0.25353987  0.25547670  0.91590381  1
  C  C102  1  0.25532019  0.45800606  0.77932307  1
  H  H103  1  0.28445485  0.46162165  0.85745064  1
  H  H104  1  0.46768492  0.34694709  0.77812348  1
  C  C105  1  0.30481111  0.26657600  0.99505212  1
  C  C106  1  0.24326744  0.73661529  0.07437065  1
  C  C107  1  0.24000930  0.73263434  0.13056635  1
  C  C108  1  0.25438082  0.52267997  0.24567834  1
  O  O109  1  0.25730274  0.62185773  0.24263612  1
  H  H110  1  0.26205976  0.54514313  0.21060141  1
  Zn  Zn111  1  0.28467361  0.69909983  0.23682110  1
  H  H112  1  0.43794440  0.66697909  0.23981726  1
  H  H113  1  0.31369288  0.69193922  0.06322820  1
  O  O114  1  0.27327029  0.70964320  0.15562908  1
  C  C115  1  0.28358490  0.71534527  0.04765944  1
  O  O116  1  0.20043844  0.75135190  0.15212478  1
  C  C117  1  0.20852438  0.77076054  0.05213953  1
  H  H118  1  0.03969397  0.80378410  0.23019162  1
  C  C119  1  0.01686269  0.77078070  0.24172827  1
  H  H120  1  0.17840143  0.78958924  0.07473180  1
  Zn  Zn121  1  0.20185337  0.78375577  0.22767259  1
  H  H122  1  0.21255486  0.95168475  0.18278101  1
  O  O123  1  0.22405140  0.86363183  0.22704982  1
  C  C124  1  0.22817708  0.97201841  0.21529722  1
  C  C125  1  0.21246814  0.78410216  0.00118951  1
  Zn  Zn126  1  0.19580260  0.70343258  0.32159786  1
  H  H127  1  0.21819555  0.54049970  0.37021661  1
  C  C128  1  0.23146961  0.52130334  0.33596955  1
  H  H129  1  0.16909003  0.73190730  0.47945691  1
  O  O130  1  0.12051332  0.69434584  0.29235398  1
  H  H131  1  0.03416012  0.64919174  0.28500956  1
  C  C132  1  0.01461355  0.68141244  0.26924348  1
  O  O133  1  0.23647771  0.63142523  0.32488613  1
  C  C134  1  0.24514738  0.60477295  0.28603840  1
  C  C135  1  0.09661815  0.72911058  0.26910121  1
  C  C136  1  0.20119973  0.74887373  0.49999182  1
  C  C137  1  0.04097142  0.72680426  0.25758712  1
  C  C138  1  0.24411868  0.54844826  0.29202054  1
  O  O139  1  0.24301734  0.74678568  0.27537151  1
  O  O140  1  0.35983670  0.70255102  0.26718146  1
  C  C141  1  0.38277575  0.74238949  0.27834760  1
  C  C142  1  0.43825668  0.74302750  0.27044453  1
  C  C143  1  0.46290515  0.70007584  0.25010170  1
  O  O144  1  0.20681023  0.75027952  0.39016023  1
  C  C145  1  0.24761264  0.76139758  0.47473004  1
  C  C146  1  0.24710665  0.75522176  0.41886581  1
  O  O147  1  0.12084716  0.76804602  0.25693597  1
  C  C148  1  0.24473075  0.94575172  0.25956816  1
  C  C149  1  0.24102610  0.89058328  0.26251612  1
  O  O150  1  0.28875486  0.76067689  0.39687881  1
  O  O151  1  0.25405070  0.87064384  0.30508487  1
  C  C152  1  0.26291857  0.96922305  0.30463402  1
  H  H153  1  0.44668726  0.81966468  0.29864118  1
  C  C154  1  0.46577402  0.78597148  0.28170143  1
  H  H155  1  0.27504514  0.94381300  0.33704192  1
  C  C156  1  0.29289010  0.77365014  0.49939405  1
  H  H157  1  0.32808579  0.78161357  0.48096373  1
  O  O158  1  0.36178846  0.78103002  0.29674081  1
  Zn  Zn159  1  0.28475881  0.79651093  0.31607010  1
  Zn  Zn160  1  0.21281593  0.71453275  0.74176680  1
  H  H161  1  0.21957857  0.55223820  0.70160272  1
  O  O162  1  0.24177794  0.63968153  0.74359399  1
  H  H163  1  0.17009181  0.73102272  0.57684559  1
  C  C164  1  0.20121131  0.74775546  0.55257124  1
  C  C165  1  0.23600482  0.53378228  0.73699703  1
  O  O166  1  0.21471698  0.73979320  0.66020320  1
  H  H167  1  0.05808004  0.69120625  0.71836855  1
  C  C168  1  0.03288714  0.72001138  0.73649466  1
  C  C169  1  0.24845947  0.76063152  0.63303461  1
  C  C170  1  0.24612445  0.76233216  0.57719765  1
  O  O171  1  0.28989765  0.77342642  0.65406041  1
  C  C172  1  0.47778657  0.80106379  0.73677553  1
  C  C173  1  0.27063458  0.98686065  0.71768809  1
  Zn  Zn174  1  0.29484310  0.80605434  0.73144892  1
  H  H175  1  0.27108899  0.96812038  0.68139364  1
  O  O176  1  0.25845620  0.88204127  0.72620652  1
  C  C177  1  0.29263899  0.77341763  0.55219227  1
  H  H178  1  0.45484489  0.83330293  0.72863686  1
  H  H179  1  0.32723268  0.78035531  0.57160339  1
  O  O180  1  0.13740619  0.72087327  0.76367600  1
  C  C181  1  0.28668469  0.72816573  0.99612371  1
  C  C182  1  0.26208574  0.61487341  0.78001109  1
  C  C183  1  0.25560396  0.56069460  0.77979259  1
  O  O184  1  0.27633662  0.63580913  0.82048311  1
  C  C185  1  0.27113954  0.53472578  0.82396268  1
  H  H186  1  0.28267750  0.55791812  0.85581738  1
  Zn  Zn187  1  0.30000077  0.71925440  0.81213866  1
  H  H188  1  0.45731753  0.68197987  0.79148993  1
  O  O189  1  0.37841430  0.72448209  0.79086952  1
  C  C190  1  0.47774136  0.71511775  0.77328976  1
  H  H191  1  0.31628168  0.71531934  0.96979561  1
  C  C192  1  0.24230648  0.90691542  0.76180270  1
  O  O193  1  0.22102068  0.88662178  0.80009591  1
  O  O194  1  0.22901265  0.79911206  0.89657317  1
  H  H195  1  0.18453683  0.80792268  0.98101828  1
  H  H196  1  0.23162832  0.96669224  0.84170149  1
  H  H197  1  0.04328140  0.82499440  0.81367691  1
  C  C198  1  0.02333130  0.79615407  0.78967124  1
  Zn  Zn199  1  0.20857456  0.80698680  0.81773918  1
  O  O200  1  0.12834417  0.79560399  0.79671431  1
  C  C201  1  0.24296591  0.98818399  0.80866440  1
  C  C202  1  0.05299492  0.75770037  0.76707940  1
  C  C203  1  0.10897022  0.75839085  0.77613438  1
  O  O204  1  0.37385237  0.79974825  0.75309461  1
  C  C205  1  0.25974650  0.77049396  0.91774349  1
  C  C206  1  0.25230484  0.76082279  0.97347926  1
  C  C207  1  0.25190800  0.96338060  0.76167965  1
  C  C208  1  0.39806129  0.76338869  0.77162742  1
  O  O209  1  0.29743018  0.75140693  0.89458243  1
  C  C210  1  0.45331223  0.76074605  0.76067535  1
  O  O211  1  0.25151668  0.76242199  0.77504411  1
  C  C212  1  0.60940205  0.24009063  0.23207856  1
  C  C213  1  0.55575558  0.23331214  0.24843528  1
  O  O214  1  0.63840000  0.20370340  0.23325030  1
  C  C215  1  0.73250112  0.23592114  0.02125088  1
  C  C216  1  0.73315477  0.23618059  0.07837184  1
  C  C217  1  0.75840673  0.04274623  0.22781473  1
  O  O218  1  0.75566901  0.24029924  0.21485848  1
  C  C219  1  0.75779560  0.09928874  0.22680795  1
  O  O220  1  0.78836534  0.12042947  0.19839280  1
  H  H221  1  0.81428829  0.03705906  0.17132746  1
  Zn  Zn222  1  0.79979804  0.19652798  0.17485709  1
  H  H223  1  0.96069266  0.17319699  0.21203498  1
  C  C224  1  0.97783684  0.20717708  0.22769588  1
  O  O225  1  0.87822461  0.21040544  0.19743694  1
  H  H226  1  0.81191768  0.22145560  0.02267407  1
  O  O227  1  0.77448899  0.22285186  0.09764047  1
  C  C228  1  0.89589184  0.24901824  0.21905338  1
  C  C229  1  0.94946423  0.24909682  0.23655760  1
  C  C230  1  0.79074109  0.01586044  0.19679072  1
  O  O231  1  0.69636224  0.25149191  0.10261172  1
  H  H232  1  0.65547999  0.25365006  0.00899483  1
  O  O233  1  0.62449543  0.28339941  0.21900063  1
  O  O234  1  0.73093059  0.35749824  0.18572193  1
  H  H235  1  0.55163706  0.31389242  0.23687361  1
  Zn  Zn236  1  0.70075653  0.28165904  0.18163104  1
  C  C237  1  0.71446478  0.46179452  0.17521876  1
  H  H238  1  0.69824018  0.43826147  0.14583572  1
  C  C239  1  0.74208265  0.43955730  0.21469540  1
  C  C240  1  0.52994539  0.28004180  0.24988798  1
  O  O241  1  0.86966410  0.28811760  0.22892836  1
  C  C242  1  0.75268044  0.38450158  0.21919120  1
  Zn  Zn243  1  0.71435272  0.19935391  0.26237422  1
  H  H244  1  0.55760033  0.15165063  0.25998140  1
  C  C245  1  0.53389536  0.18686813  0.26076581  1
  H  H246  1  0.67064450  0.21999273  0.42894166  1
  C  C247  1  0.70404912  0.23805510  0.44581303  1
  O  O248  1  0.71424955  0.23298002  0.33502909  1
  O  O249  1  0.72787535  0.12297496  0.25634769  1
  H  H250  1  0.69870859  0.03740951  0.28944718  1
  C  C251  1  0.72540418  0.01774481  0.26205262  1
  C  C252  1  0.70887136  0.24211430  0.49824226  1
  C  C253  1  0.74550124  0.25459584  0.41752155  1
  C  C254  1  0.74924900  0.25201749  0.36135052  1
  O  O255  1  0.78869801  0.26942955  0.33959285  1
  C  C256  1  0.79012751  0.27397489  0.44047008  1
  O  O257  1  0.78154151  0.36721957  0.25271964  1
  C  C258  1  0.75919605  0.46830435  0.25699551  1
  H  H259  1  0.77638661  0.44805068  0.28871151  1
  H  H260  1  0.82202805  0.28774128  0.41797310  1
  C  C261  1  0.97032722  0.29299608  0.26051752  1
  Zn  Zn262  1  0.79299344  0.28929995  0.25763382  1
  H  H263  1  0.94708758  0.32725894  0.27116181  1
  C  C264  1  0.79199498  0.27965165  0.49336850  1
  Zn  Zn265  1  0.71138906  0.21267987  0.67959185  1
  H  H266  1  0.55416508  0.19210223  0.70894731  1
  O  O267  1  0.63740281  0.22704894  0.71014291  1
  O  O268  1  0.73392723  0.13824094  0.66727454  1
  H  H269  1  0.71466342  0.04486958  0.62972767  1
  C  C270  1  0.72896599  0.02664264  0.66602585  1
  C  C271  1  0.74736863  0.05571393  0.70645950  1
  H  H272  1  0.67640190  0.22512948  0.52260011  1
  O  O273  1  0.71121379  0.24290500  0.60048866  1
  C  C274  1  0.53156150  0.22329686  0.72247889  1
  C  C275  1  0.75237265  0.11275218  0.70301066  1
  O  O276  1  0.76146929  0.24695029  0.72225410  1
  O  O277  1  0.88105596  0.20607218  0.73549828  1
  C  C278  1  0.90457045  0.24507489  0.72445663  1
  O  O279  1  0.76965314  0.13422871  0.74254913  1
  C  C280  1  0.95712641  0.24864113  0.74089033  1
  C  C281  1  0.61406598  0.26673111  0.72332003  1
  O  O282  1  0.63865310  0.30444673  0.73479651  1
  C  C283  1  0.55848493  0.26719347  0.73293698  1
  O  O284  1  0.88443617  0.28133374  0.70078733  1
  C  C285  1  0.75150643  0.25892574  0.57923442  1
  C  C286  1  0.75154103  0.26166866  0.52245468  1
  H  H287  1  0.79087652  0.45556224  0.65700404  1
  C  C288  1  0.77142734  0.39316188  0.73329134  1
  C  C289  1  0.76787110  0.45023267  0.73735823  1
  O  O290  1  0.78401474  0.37229447  0.69210636  1
  C  C291  1  0.78082483  0.47654237  0.69284901  1
  O  O292  1  0.78886163  0.27467388  0.60448473  1
  C  C293  1  0.98162482  0.29372330  0.72870011  1
  H  H294  1  0.82287179  0.29956768  0.51291401  1
  Zn  Zn295  1  0.80381284  0.29112193  0.67852036  1
  H  H296  1  0.96407736  0.32735627  0.71064277  1
  C  C297  1  0.69738415  0.24953243  0.93870271  1
  C  C298  1  0.74991214  0.23512217  0.85876620  1
  C  C299  1  0.74304253  0.23472342  0.91674303  1
  O  O300  1  0.71219306  0.24825824  0.83110568  1
  C  C301  1  0.69093067  0.24842058  0.99132279  1
  C  C302  1  0.75999777  0.03520529  0.75383208  1
  H  H303  1  0.77196379  0.05957334  0.78585576  1
  Zn  Zn304  1  0.80444937  0.20350216  0.76386138  1
  H  H305  1  0.81951548  0.20561037  0.92831525  1
  C  C306  1  0.97974161  0.20941405  0.76978592  1
  O  O307  1  0.79131079  0.21968638  0.84259579  1
  C  C308  1  0.78452977  0.22060986  0.94612356  1
  H  H309  1  0.95556832  0.17944225  0.78577981  1
  C  C310  1  0.77926659  0.22487350  0.99907533  1
  C  C311  1  0.53579550  0.31204294  0.75244757  1
  H  H312  1  0.73794318  0.45173102  0.81309615  1
  H  H313  1  0.66470783  0.25753409  0.91319677  1
  H  H314  1  0.55958966  0.34611677  0.75518567  1
  Zn  Zn315  1  0.72017435  0.29337230  0.76215879  1
  C  C316  1  0.74793653  0.47354475  0.77957958  1
  O  O317  1  0.75187481  0.36902614  0.76906447  1
  Zn  Zn318  1  0.69108109  0.70090583  0.18752237  1
  H  H319  1  0.53549079  0.66746367  0.23152606  1
  O  O320  1  0.61699581  0.71317423  0.21493682  1
  C  C321  1  0.70501333  0.51275611  0.17567361  1
  O  O322  1  0.68836853  0.72201351  0.10416195  1
  C  C323  1  0.51441564  0.70071054  0.24220623  1
  C  C324  1  0.72302895  0.74806144  0.08577325  1
  H  H325  1  0.68264924  0.53322458  0.14721924  1
  O  O326  1  0.70097744  0.61981691  0.18073657  1
  O  O327  1  0.74112845  0.74220036  0.22960554  1
  C  C328  1  0.72410372  0.54265018  0.21573387  1
  C  C329  1  0.71850701  0.59858693  0.21896505  1
  C  C330  1  0.68782641  0.72928960  0.00149464  1
  H  H331  1  0.66058804  0.70670007  0.02233946  1
  C  C332  1  0.59708944  0.74735581  0.23977127  1
  C  C333  1  0.88423266  0.72349412  0.22811261  1
  C  C334  1  0.93949207  0.72176960  0.24030880  1
  O  O335  1  0.85792862  0.68546130  0.23759140  1
  C  C336  1  0.72515099  0.75478853  0.02851119  1
  C  C337  1  0.75962889  0.78709595  0.00637905  1
  O  O338  1  0.86700856  0.76078540  0.20342072  1
  O  O339  1  0.75946661  0.76517019  0.11019050  1
  H  H340  1  0.94406808  0.79841899  0.21454623  1
  C  C341  1  0.76161072  0.88160107  0.23704104  1
  H  H342  1  0.78733564  0.80843881  0.02815710  1
  O  O343  1  0.79193173  0.85909678  0.21040198  1
  C  C344  1  0.79493524  0.96277285  0.19964095  1
  C  C345  1  0.96559529  0.76773302  0.23298705  1
  C  C346  1  0.76112191  0.94049540  0.23291732  1
  H  H347  1  0.82069288  0.94045430  0.17622891  1
  Zn  Zn348  1  0.79327252  0.78067749  0.18646115  1
  C  C349  1  0.69878970  0.74792769  0.45434228  1
  O  O350  1  0.73420761  0.62153576  0.25794118  1
  C  C351  1  0.74268784  0.73539650  0.37060548  1
  C  C352  1  0.74140294  0.73350430  0.42684480  1
  C  C353  1  0.54088759  0.74559495  0.25109198  1
  C  C354  1  0.74879566  0.51921584  0.25704108  1
  H  H355  1  0.76463263  0.54290384  0.28783026  1
  Zn  Zn356  1  0.77911606  0.69087760  0.26708230  1
  H  H357  1  0.94080491  0.64503617  0.26904557  1
  O  O358  1  0.77935932  0.71701673  0.34500250  1
  H  H359  1  0.82056059  0.70280293  0.42626404  1
  C  C360  1  0.78732984  0.71691006  0.44906232  1
  C  C361  1  0.96306598  0.67968943  0.26217735  1
  O  O362  1  0.70437334  0.75049346  0.34853750  1
  H  H363  1  0.53747715  0.82082948  0.28254918  1
  Zn  Zn364  1  0.70157247  0.78810027  0.27166873  1
  C  C365  1  0.51685976  0.78777193  0.27116835  1
  O  O366  1  0.73128358  0.86232353  0.26636375  1
  H  H367  1  0.66616503  0.76367775  0.43347068  1
  H  H368  1  0.70083810  0.94485168  0.29098007  1
  C  C369  1  0.72777001  0.96568461  0.26393622  1
  O  O370  1  0.62039002  0.78721277  0.25012482  1
  O  O371  1  0.63476997  0.70890651  0.73314706  1
  C  C372  1  0.74709077  0.73554247  0.53076067  1
  C  C373  1  0.74661390  0.74094095  0.58716744  1
  C  C374  1  0.60898743  0.74588052  0.72056648  1
  C  C375  1  0.75879590  0.61024701  0.73563665  1
  C  C376  1  0.76324017  0.55317025  0.73908993  1
  H  H377  1  0.78233449  0.55282479  0.66034096  1
  Zn  Zn378  1  0.79356508  0.71121004  0.69504650  1
  H  H379  1  0.96343771  0.68583367  0.70982145  1
  C  C380  1  0.77746763  0.52904708  0.69369681  1
  C  C381  1  0.98135418  0.71839635  0.73149740  1
  O  O382  1  0.87209384  0.72355203  0.71749975  1
  O  O383  1  0.77627180  0.63082294  0.69718033  1
  H  H384  1  0.82372831  0.70089443  0.52085823  1
  O  O385  1  0.78616495  0.73150272  0.61152954  1
  C  C386  1  0.78881801  0.71683917  0.50172190  1
  C  C387  1  0.55376878  0.75040420  0.73433321  1
  O  O388  1  0.70763201  0.75990645  0.60896063  1
  H  H389  1  0.67135142  0.76489677  0.53337747  1
  Zn  Zn390  1  0.70678236  0.79356556  0.68380079  1
  H  H391  1  0.54884404  0.82636948  0.70225734  1
  O  O392  1  0.62788134  0.78081539  0.69603324  1
  C  C393  1  0.52759389  0.79575583  0.72302877  1
  C  C394  1  0.74437964  0.95432394  0.72153716  1
  O  O395  1  0.72657088  0.87331491  0.68842910  1
  C  C396  1  0.72858399  0.97450180  0.67422324  1
  H  H397  1  0.71373194  0.94685034  0.64636733  1
  C  C398  1  0.74077294  0.89827915  0.72792720  1
  C  C399  1  0.70197870  0.75050613  0.50721656  1
  C  C400  1  0.89411849  0.75638287  0.74232907  1
  O  O401  1  0.75283760  0.75819983  0.72977852  1
  Zn  Zn402  1  0.70640064  0.70746105  0.76778297  1
  H  H403  1  0.72845094  0.54970743  0.81304559  1
  C  C404  1  0.74560901  0.52635334  0.78064408  1
  O  O405  1  0.70364750  0.73524622  0.84615013  1
  C  C406  1  0.52861115  0.71033316  0.75926607  1
  O  O407  1  0.73758429  0.63355326  0.77120961  1
  H  H408  1  0.54952818  0.67739322  0.76912340  1
  H  H409  1  0.66138535  0.70971630  0.92915154  1
  C  C410  1  0.69066398  0.73003667  0.94884938  1
  C  C411  1  0.73815134  0.75668018  0.87057550  1
  C  C412  1  0.72883443  0.75888186  0.92548395  1
  H  H413  1  0.77066312  0.96941647  0.80229092  1
  Zn  Zn414  1  0.79233932  0.80364937  0.77103629  1
  C  C415  1  0.75793330  0.98371948  0.76410808  1
  C  C416  1  0.76133318  0.79006917  0.95305965  1
  O  O417  1  0.77238165  0.78205633  0.84959353  1
  H  H418  1  0.78875792  0.81453901  0.93560123  1
  C  C419  1  0.97174207  0.79571536  0.77899323  1
  H  H420  1  0.94697408  0.82659988  0.79200628  1
  C  C421  1  0.95040310  0.75625325  0.75272355  1
  O  O422  1  0.75461764  0.87523241  0.76633533  1
  O  O423  1  0.87070711  0.79323084  0.76136010  1
