# generated using pymatgen
data_ZnH8C16(NO2)2
_symmetry_space_group_name_H-M   'P 1'
_cell_length_a   12.73823820
_cell_length_b   13.74927572
_cell_length_c   25.06516500
_cell_angle_alpha   90.00000000
_cell_angle_beta   90.00000000
_cell_angle_gamma   90.00000000
_symmetry_Int_Tables_number   1
_chemical_formula_structural   ZnH8C16(NO2)2
_chemical_formula_sum   'Zn12 H96 C192 N24 O48'
_cell_volume   4389.95183129
_cell_formula_units_Z   12
loop_
 _symmetry_equiv_pos_site_id
 _symmetry_equiv_pos_as_xyz
  1  'x, y, z'
loop_
 _atom_site_type_symbol
 _atom_site_label
 _atom_site_symmetry_multiplicity
 _atom_site_fract_x
 _atom_site_fract_y
 _atom_site_fract_z
 _atom_site_occupancy
  C  C0  1  0.32000533  0.30910194  0.02759542  1
  C  C1  1  0.31370796  0.28768343  0.12053961  1
  C  C2  1  0.36342485  0.30794419  0.17687353  1
  C  C3  1  0.22435236  0.22898746  0.11733390  1
  C  C4  1  0.19978555  0.19610773  0.06581388  1
  O  O5  1  0.31067345  0.30858153  0.21601230  1
  H  H6  1  0.18483285  0.20146215  0.15516834  1
  H  H7  1  0.43044474  0.15465788  0.02889138  1
  C  C8  1  0.21081241  0.08334385  0.22943434  1
  C  C9  1  0.36241386  0.33375191  0.07752236  1
  H  H10  1  0.13829208  0.14351166  0.06285535  1
  N  N11  1  0.42188751  0.05077055  0.21764940  1
  O  O12  1  0.45993089  0.32798738  0.18116291  1
  C  C13  1  0.25172963  0.22765450  0.01718857  1
  H  H14  1  0.42655266  0.39030707  0.08269643  1
  C  C15  1  0.10483228  0.08925072  0.24166606  1
  C  C16  1  0.36562257  0.02256909  0.17391730  1
  C  C17  1  0.24908232  0.03886539  0.18158085  1
  C  C18  1  0.03294820  0.04652286  0.20660091  1
  C  C19  1  0.48432244  0.11010352  0.00150660  1
  C  C20  1  0.17539390  0.00708034  0.14356467  1
  C  C21  1  0.06719540  0.01441082  0.15748552  1
  N  N22  1  0.21578955  0.32954558  0.34842712  1
  C  C23  1  0.47291930  0.38125344  0.40839564  1
  H  H24  1  0.34510850  0.34665756  0.28806956  1
  C  C25  1  0.05615227  0.30202276  0.26539578  1
  C  C26  1  0.03652656  0.28400049  0.32157778  1
  C  C27  1  0.16617656  0.27577938  0.45286113  1
  N  N28  1  0.09524676  0.27550779  0.41341965  1
  C  C29  1  0.27884459  0.32698395  0.38941496  1
  N  N30  1  0.26611676  0.29892717  0.44161278  1
  H  H31  1  0.26477865  0.12056206  0.25852729  1
  C  C32  1  0.41100811  0.36753189  0.31733318  1
  H  H33  1  0.45988026  0.37453412  0.45113793  1
  C  C34  1  0.39096664  0.36077271  0.37290969  1
  C  C35  1  0.12375506  0.29684975  0.36440213  1
  H  H36  1  0.44329578  0.18133666  0.28432998  1
  H  H37  1  0.08580344  0.12726446  0.27831477  1
  H  H38  1  0.13465913  0.02152340  0.49759868  1
  H  H39  1  0.13846160  0.31125319  0.25435905  1
  Zn  Zn40  1  0.27553483  0.49948359  0.47763877  1
  C  C41  1  0.21289022  0.20563003  0.54384088  1
  O  O42  1  0.10886455  0.11070017  0.69031699  1
  C  C43  1  0.42537091  0.48917417  0.51790330  1
  C  C44  1  0.07586454  0.18601831  0.60697925  1
  H  H45  1  0.24422190  0.14300171  0.61794810  1
  C  C46  1  0.18247156  0.17631521  0.59436416  1
  C  C47  1  0.10207542  0.40167182  0.71396762  1
  H  H48  1  0.17999399  0.38512211  0.56994530  1
  C  C49  1  0.09287532  0.31084733  0.73649712  1
  C  C50  1  0.23288366  0.44063790  0.55294047  1
  H  H51  1  0.17169436  0.42346819  0.68888397  1
  C  C52  1  0.43974287  0.08369037  0.63472056  1
  O  O53  1  0.40090279  0.07486474  0.54344934  1
  H  H54  1  0.37309340  0.34591320  0.71308729  1
  H  H55  1  0.38698796  0.35302708  0.55917480  1
  C  C56  1  0.13730968  0.24771839  0.50877568  1
  C  C57  1  0.35078538  0.41676851  0.53801034  1
  C  C58  1  0.03634241  0.14656043  0.65920476  1
  C  C59  1  0.44600052  0.12322135  0.57986003  1
  C  C60  1  0.02409075  0.47579821  0.71640482  1
  C  C61  1  0.02609794  0.24749390  0.52348251  1
  C  C62  1  0.36436040  0.01275290  0.64460406  1
  H  H63  1  0.29331823  0.20077738  0.53120656  1
  O  O64  1  0.49154079  0.20088434  0.56947144  1
  H  H65  1  0.15994805  0.25691580  0.72750751  1
  C  C66  1  0.42877271  0.01246465  0.73757756  1
  C  C67  1  0.24271712  0.17967174  0.96492814  1
  C  C68  1  0.17251331  0.45890595  0.88675978  1
  C  C69  1  0.17926242  0.07298399  0.90150382  1
  N  N70  1  0.21471450  0.11359344  0.85549405  1
  O  O71  1  0.15193337  0.40462897  0.84986502  1
  C  C72  1  0.32250522  0.27953122  0.78455634  1
  N  N73  1  0.29072590  0.22240466  0.92267371  1
  C  C74  1  0.27907944  0.18666861  0.87477038  1
  Zn  Zn75  1  0.12657078  0.12390674  0.77663976  1
  C  C76  1  0.45677508  0.22696192  0.84983562  1
  O  O77  1  0.14106286  0.45173957  0.93397151  1
  C  C78  1  0.35007862  0.23240518  0.83228240  1
  N  N79  1  0.18906024  0.09878225  0.95178868  1
  C  C80  1  0.39993692  0.30725797  0.75007072  1
  H  H81  1  0.46907811  0.19547538  0.88971316  1
  C  C82  1  0.44377575  0.05894639  0.95721173  1
  H  H83  1  0.23777681  0.29428397  0.77820924  1
  H  H84  1  0.35583199  0.05543408  0.95044651  1
  H  H85  1  0.35204531  0.34107796  0.99325419  1
  N  N86  1  0.46869358  0.00131134  0.83279824  1
  C  C87  1  0.42360601  0.66343864  0.20067593  1
  C  C88  1  0.37131638  0.58659106  0.07144625  1
  H  H89  1  0.42739828  0.81642393  0.17537479  1
  C  C90  1  0.45404219  0.76087427  0.20677210  1
  N  N91  1  0.27021308  0.69928601  0.14498233  1
  C  C92  1  0.01101101  0.53418892  0.23352100  1
  C  C93  1  0.35113905  0.63877671  0.15053582  1
  C  C94  1  0.01908100  0.54849100  0.13700045  1
  C  C95  1  0.23392256  0.68684391  0.09686504  1
  C  C96  1  0.14073708  0.80975923  0.03867620  1
  N  N97  1  0.40367602  0.57497803  0.12002313  1
  C  C98  1  0.05641122  0.87253174  0.03001054  1
  C  C99  1  0.44917855  0.55348028  0.03156549  1
  C  C100  1  0.14309958  0.75538417  0.08739088  1
  N  N101  1  0.39967410  0.97550584  0.13167380  1
  H  H102  1  0.41676956  0.91744763  0.03532345  1
  C  C103  1  0.06496784  0.77049954  0.12758103  1
  H  H104  1  0.06348410  0.56385441  0.09954006  1
  H  H105  1  0.15352919  0.58273028  0.19157751  1
  C  C106  1  0.45785043  0.59820517  0.23933078  1
  N  N107  1  0.28120262  0.63847050  0.05408402  1
  H  H108  1  0.06877682  0.73034175  0.16694871  1
  C  C109  1  0.06947509  0.55979806  0.18583498  1
  H  H110  1  0.20720790  0.81370351  0.01095366  1
  H  H111  1  0.43168254  0.52227088  0.23627190  1
  H  H112  1  0.01108774  0.98203006  0.12854931  1
  C  C113  1  0.49621060  0.88672006  0.04367760  1
  H  H114  1  0.20488106  0.97529937  0.10600374  1
  C  C115  1  0.37946916  0.60901320  0.37285627  1
  H  H116  1  0.08185583  0.70168780  0.40096399  1
  H  H117  1  0.21616662  0.77798152  0.31270553  1
  N  N118  1  0.14261184  0.58858028  0.29461895  1
  C  C119  1  0.28313237  0.64557706  0.35050522  1
  C  C120  1  0.05064412  0.53274219  0.38310771  1
  C  C121  1  0.27689741  0.74773355  0.33999616  1
  C  C122  1  0.34451750  0.81220392  0.36786265  1
  H  H123  1  0.33596608  0.88846648  0.36628592  1
  C  C124  1  0.09848662  0.77158287  0.42156553  1
  C  C125  1  0.18040407  0.77853202  0.45944118  1
  H  H126  1  0.23116263  0.71687255  0.47133345  1
  N  N127  1  0.14811467  0.55827892  0.39271282  1
  C  C128  1  0.12189590  0.95361629  0.47455620  1
  O  O129  1  0.46534854  0.91476927  0.45541633  1
  C  C130  1  0.42937522  0.77434995  0.39674681  1
  C  C131  1  0.18181329  0.58931951  0.34403114  1
  C  C132  1  0.45423138  0.67464105  0.39387784  1
  H  H133  1  0.38952780  0.52750684  0.37558112  1
  C  C134  1  0.04820439  0.55161700  0.28877544  1
  C  C135  1  0.03009189  0.84902233  0.41592415  1
  C  C136  1  0.03871933  0.94105182  0.44014205  1
  H  H137  1  0.05749496  0.58588435  0.49625452  1
  C  C138  1  0.18394684  0.87038367  0.48979133  1
  C  C139  1  0.00251402  0.52752897  0.48418712  1
  C  C140  1  0.49908321  0.83752789  0.43544504  1
  C  C141  1  0.20675773  0.54218572  0.54817563  1
  N  N142  1  0.07560494  0.65037561  0.57781116  1
  H  H143  1  0.49716250  0.90538272  0.67275780  1
  N  N144  1  0.31653903  0.83236509  0.56513212  1
  N  N145  1  0.24529448  0.82339470  0.65648189  1
  H  H146  1  0.13538031  0.77958036  0.72818988  1
  C  C147  1  0.15895827  0.85795019  0.63157676  1
  C  C148  1  0.31660385  0.80894414  0.61883543  1
  C  C149  1  0.21877436  0.85848899  0.54589398  1
  C  C150  1  0.39358303  0.59104740  0.51413928  1
  N  N151  1  0.12373144  0.52940400  0.64260039  1
  C  C152  1  0.44024645  0.67122950  0.63468022  1
  N  N153  1  0.14353517  0.88317019  0.57997430  1
  C  C154  1  0.49710832  0.82427884  0.67223959  1
  C  C155  1  0.42002679  0.77013337  0.64290911  1
  H  H156  1  0.26904045  0.68702700  0.55168822  1
  C  C157  1  0.28003374  0.61798759  0.53303105  1
  Zn  Zn158  1  0.45229341  0.91951860  0.53470219  1
  C  C159  1  0.06119178  0.87266538  0.66858260  1
  C  C160  1  0.13338863  0.57780254  0.59623479  1
  H  H161  1  0.38696631  0.62587354  0.61269931  1
  H  H162  1  0.29160383  0.93150438  0.70528153  1
  C  C163  1  0.06526847  0.82907475  0.71978555  1
  H  H164  1  0.44909046  0.65326400  0.51948298  1
  C  C165  1  0.04387707  0.55304565  0.67486299  1
  H  H166  1  0.02836508  0.78159921  0.53076459  1
  C  C167  1  0.35684046  0.98018536  0.69745823  1
  H  H168  1  0.31383454  0.98560847  0.61388168  1
  C  C169  1  0.34598936  0.72973309  0.85370077  1
  C  C170  1  0.11391555  0.97795033  0.88957043  1
  C  C171  1  0.24635153  0.62108482  0.91159371  1
  H  H172  1  0.29360742  0.76525563  0.93800346  1
  N  N173  1  0.41708899  0.86950040  0.89058594  1
  C  C174  1  0.33052656  0.65857037  0.81265211  1
  H  H175  1  0.16516732  0.75947961  0.83225773  1
  H  H176  1  0.05631156  0.92932476  0.99968536  1
  C  C177  1  0.29507865  0.71101526  0.90410391  1
  C  C178  1  0.17127556  0.90559592  0.86317092  1
  C  C179  1  0.38677330  0.83241180  0.84499782  1
  C  C180  1  0.12344172  0.81654077  0.85576726  1
  C  C181  1  0.27877538  0.57061804  0.82184018  1
  C  C182  1  0.46317419  0.95259270  0.87915416  1
  C  C183  1  0.43523200  0.58971121  0.97861108  1
  H  H184  1  0.24954484  0.92107397  0.85011863  1
  O  O185  1  0.03587477  0.63147538  0.97016200  1
  H  H186  1  0.36304148  0.63457029  0.97262428  1
  N  N187  1  0.38834358  0.87046355  0.79574399  1
  Zn  Zn188  1  0.18505468  0.58612551  0.98808825  1
  C  C189  1  0.23271800  0.55321493  0.87192640  1
  O  O190  1  0.03570733  0.65092062  0.83255919  1
  H  H191  1  0.26841532  0.52028098  0.78971321  1
  C  C192  1  0.02112919  0.80073254  0.87462550  1
  H  H193  1  0.04043164  0.65789030  0.93558733  1
  H  H194  1  0.35917056  0.67062436  0.77141286  1
  C  C195  1  0.42622286  0.95852268  0.78999627  1
  H  H196  1  0.49119833  0.61348984  0.89596122  1
  C  C197  1  0.01406465  0.96215487  0.91201804  1
  H  H198  1  0.69259101  0.45386934  0.00406265  1
  O  O199  1  0.69340830  0.25381653  0.22313733  1
  O  O200  1  0.80850517  0.24260502  0.15917270  1
  O  O201  1  0.72949605  0.17462364  0.06158047  1
  C  C202  1  0.63474619  0.16985937  0.05592270  1
  Zn  Zn203  1  0.58336651  0.23464118  0.16738920  1
  H  H204  1  0.99908025  0.29960786  0.18208252  1
  Zn  Zn205  1  0.79015192  0.09994475  0.13016380  1
  C  C206  1  0.78735962  0.25907738  0.20800184  1
  C  C207  1  0.59427727  0.11136115  0.00780031  1
  C  C208  1  0.90940506  0.49326144  0.23057448  1
  C  C209  1  0.52534594  0.04827009  0.21399441  1
  C  C210  1  0.97976689  0.29322223  0.22711634  1
  H  H211  1  0.77597485  0.45193174  0.17721281  1
  C  C212  1  0.87787660  0.27352263  0.24744024  1
  C  C213  1  0.91975077  0.03449786  0.22767906  1
  C  C214  1  0.86004058  0.48112419  0.18212735  1
  N  N215  1  0.57107317  0.00780355  0.17221238  1
  O  O216  1  0.57166630  0.20875632  0.08760834  1
  C  C217  1  0.61741618  0.49172249  0.00010222  1
  C  C218  1  0.54350157  0.49867542  0.04157203  1
  O  O219  1  0.76965457  0.47651292  0.08454112  1
  H  H220  1  0.56549723  0.47400295  0.08088736  1
  O  O221  1  0.84433595  0.00556480  0.19888687  1
  C  C222  1  0.57637502  0.08573795  0.26368692  1
  C  C223  1  0.85459125  0.26141997  0.30025323  1
  C  C224  1  0.58645853  0.41933142  0.33281123  1
  C  C225  1  0.64668062  0.14908337  0.36337390  1
  C  C226  1  0.69445412  0.18538543  0.41592810  1
  C  C227  1  0.90816193  0.42702777  0.42036294  1
  O  O228  1  0.78759400  0.17920364  0.42272428  1
  O  O229  1  0.62557047  0.23205562  0.44318133  1
  C  C230  1  0.84446629  0.38697432  0.45824535  1
  C  C231  1  0.54871099  0.18333192  0.34724381  1
  H  H232  1  0.79523210  0.07323495  0.33778128  1
  H  H233  1  0.78751168  0.32813888  0.45059641  1
  H  H234  1  0.90028046  0.40046648  0.37886547  1
  C  C235  1  0.56908493  0.41173358  0.38664506  1
  H  H236  1  0.92420060  0.24808490  0.38218244  1
  C  C237  1  0.93601537  0.26467748  0.33871722  1
  C  C238  1  0.71377637  0.09382769  0.33036115  1
  H  H239  1  0.86874781  0.46685735  0.26709848  1
  H  H240  1  0.77167114  0.24511403  0.31247675  1
  C  C241  1  0.69345990  0.45656854  0.30888668  1
  C  C242  1  0.68282761  0.06469033  0.27995518  1
  H  H243  1  0.62946740  0.43310811  0.41507740  1
  C  C244  1  0.98642321  0.49809669  0.43058887  1
  O  O245  1  0.77011542  0.48355657  0.33756532  1
  H  H246  1  0.50353015  0.23368408  0.37159606  1
  O  O247  1  0.90404790  0.06305838  0.27321204  1
  O  O248  1  0.68988375  0.47200952  0.26153801  1
  C  C249  1  0.51979836  0.15017661  0.29634895  1
  H  H250  1  0.96512656  0.27694612  0.49376874  1
  C  C251  1  0.50971695  0.39482015  0.29608068  1
  H  H252  1  0.73815103  0.02858207  0.25064335  1
  O  O253  1  0.58014269  0.41548191  0.49986938  1
  H  H254  1  0.52564787  0.39489308  0.25273360  1
  O  O255  1  0.69477448  0.31810111  0.74067508  1
  O  O256  1  0.56790394  0.48854651  0.57828516  1
  C  C257  1  0.53392358  0.46971453  0.53401681  1
  O  O258  1  0.76260513  0.28449149  0.54839459  1
  C  C259  1  0.81272271  0.35977531  0.55750644  1
  O  O260  1  0.81728846  0.39688290  0.60478303  1
  C  C261  1  0.94395460  0.48329121  0.52299756  1
  O  O262  1  0.94376152  0.14243413  0.66631429  1
  H  H263  1  0.56165458  0.18396243  0.66632292  1
  C  C264  1  0.86611131  0.41240299  0.51250231  1
  H  H265  1  0.91203234  0.21363077  0.58536761  1
  Zn  Zn266  1  0.61852013  0.25812875  0.51925474  1
  Zn  Zn267  1  0.68338009  0.44093170  0.64370313  1
  C  C268  1  0.60424802  0.32607567  0.72844153  1
  C  C269  1  0.99648202  0.21375696  0.57158997  1
  O  O270  1  0.57420686  0.35184031  0.68187183  1
  C  C271  1  0.93045326  0.45358820  0.74568635  1
  C  C272  1  0.50444367  0.08657510  0.72585919  1
  C  C273  1  0.50901048  0.12069640  0.67390580  1
  C  C274  1  0.62839927  0.01046365  0.93248780  1
  C  C275  1  0.99993976  0.29099632  0.76926900  1
  C  C276  1  0.53263345  0.25983090  0.81366504  1
  H  H277  1  0.85541044  0.34694013  0.79989218  1
  C  C278  1  0.92353302  0.36732777  0.77364402  1
  H  H279  1  0.97689748  0.01661600  0.93822145  1
  C  C280  1  0.67025851  0.06476140  0.97493686  1
  O  O281  1  0.92353602  0.16097702  0.82743512  1
  H  H282  1  0.61384823  0.25517930  0.82674456  1
  C  C283  1  0.98737290  0.19848372  0.79826439  1
  H  H284  1  0.75523486  0.06662292  0.98374624  1
  C  C285  1  0.51614565  0.01067589  0.92501227  1
  C  C286  1  0.50846262  0.29502156  0.76205829  1
  H  H287  1  0.55272775  0.12313051  0.75657947  1
  H  H288  1  0.91952209  0.84698276  0.15052476  1
  C  C289  1  0.98090811  0.87678404  0.06990638  1
  C  C290  1  0.64571201  0.85335604  0.10140498  1
  C  C291  1  0.97798540  0.82964774  0.11835572  1
  C  C292  1  0.65271267  0.80375128  0.00978210  1
  C  C293  1  0.50253327  0.96752484  0.13670097  1
  O  O294  1  0.82505499  0.96285346  0.09338414  1
  H  H295  1  0.68435228  0.86182470  0.14098449  1
  H  H296  1  0.77175656  0.77069665  0.07022991  1
  C  C297  1  0.54770171  0.90038948  0.09244607  1
  C  C298  1  0.69193246  0.80369418  0.06140762  1
  O  O299  1  0.91121828  0.51767682  0.04159894  1
  C  C300  1  0.91573627  0.51343686  0.13752355  1
  C  C301  1  0.55425665  0.84740166  0.00209026  1
  C  C302  1  0.88894170  0.94807468  0.05706835  1
  C  C303  1  0.85929643  0.50757630  0.08355164  1
  O  O304  1  0.88908017  0.99151924  0.01553095  1
  C  C305  1  0.52647138  0.78812604  0.24588833  1
  O  O306  1  0.68641977  0.67997168  0.34930075  1
  O  O307  1  0.66115955  0.83419819  0.32917502  1
  H  H308  1  0.54995357  0.86156588  0.25128359  1
  O  O309  1  0.58980688  0.80932293  0.44313979  1
  O  O310  1  0.86074682  0.90200958  0.38237726  1
  Zn  Zn311  1  0.83885946  0.62754425  0.34848900  1
  C  C312  1  0.63877766  0.74586280  0.32519461  1
  Zn  Zn313  1  0.70479958  0.89624565  0.40443211  1
  O  O314  1  0.71718554  0.97441525  0.47993401  1
  O  O315  1  0.92561287  0.76460345  0.35449743  1
  C  C316  1  0.93240903  0.83823592  0.38222894  1
  H  H317  1  0.89044781  0.90291738  0.48873887  1
  C  C318  1  0.56439185  0.71760594  0.28043927  1
  N  N319  1  0.99056615  0.53558796  0.33528250  1
  C  C320  1  0.53289734  0.61976798  0.27936326  1
  H  H321  1  0.56348564  0.56862305  0.31042541  1
  H  H322  1  0.52551204  0.64637505  0.41050208  1
  H  H323  1  0.98717650  0.99885010  0.42882745  1
  C  C324  1  0.87846094  0.86819752  0.52734528  1
  C  C325  1  0.77951914  0.87965328  0.55188885  1
  H  H326  1  0.67730384  0.85684787  0.61941429  1
  C  C327  1  0.52589640  0.62337563  0.65782154  1
  H  H328  1  0.63133015  0.82041693  0.72265507  1
  C  C329  1  0.68661333  0.63506461  0.71923525  1
  C  C330  1  0.92239324  0.74629902  0.59625976  1
  C  C331  1  0.75358071  0.83928668  0.60159797  1
  C  C332  1  0.82719484  0.77223913  0.62211577  1
  H  H333  1  0.80339835  0.73872664  0.65993793  1
  H  H334  1  0.96990072  0.97257257  0.61760386  1
  C  C335  1  0.69645124  0.94191885  0.52450307  1
  C  C336  1  0.59542862  0.67837963  0.69119368  1
  O  O337  1  0.70644943  0.54452728  0.71072256  1
  C  C338  1  0.89157218  0.93920436  0.69050254  1
  C  C339  1  0.95200766  0.79945428  0.54912797  1
  C  C340  1  0.57894100  0.77847270  0.69931115  1
  O  O341  1  0.61420296  0.95803057  0.54994205  1
  H  H342  1  0.54072206  0.54644391  0.65596695  1
  C  C343  1  0.99940180  0.66427603  0.61281752  1
  N  N344  1  0.97955193  0.62498785  0.66086861  1
  H  H345  1  0.95697001  0.50142195  0.56409079  1
  C  C346  1  0.88927684  0.89207756  0.73986783  1
  C  C347  1  0.97621432  0.93398950  0.65499098  1
  H  H348  1  0.86323942  0.50412620  0.74648669  1
  H  H349  1  0.82691678  0.98833978  0.68239008  1
  C  C350  1  0.68722144  0.53828454  0.91324586  1
  O  O351  1  0.76720767  0.86286191  0.81494508  1
  Zn  Zn352  1  0.72528712  0.70627405  0.83843898  1
  C  C353  1  0.96462909  0.86951885  0.90418899  1
  H  H354  1  0.88414721  0.85613674  0.91904428  1
  O  O355  1  0.80535077  0.72801384  0.97711826  1
  Zn  Zn356  1  0.89203341  0.59363045  0.96216879  1
  O  O357  1  0.88592755  0.67476991  0.87382632  1
  C  C358  1  0.78508960  0.90455580  0.77273900  1
  H  H359  1  0.52321639  0.84602175  0.96276148  1
  O  O360  1  0.67509762  0.74761982  0.92161296  1
  O  O361  1  0.67067726  0.57299182  0.86802522  1
  C  C362  1  0.71687044  0.75848134  0.96538687  1
  H  H363  1  0.96869138  0.79305021  0.78993810  1
  C  C364  1  0.98033162  0.70203298  0.85926005  1
  C  C365  1  0.60026524  0.53895975  0.94885733  1
  C  C366  1  0.50234247  0.58030970  0.93435807  1
  O  O367  1  0.72797706  0.96986627  0.75549918  1
  O  O368  1  0.77353106  0.50108889  0.92583820  1
  H  H369  1  0.67820909  0.96882352  0.90604475  1
  O  O370  1  0.73747409  0.68381110  0.75188879  1
  C  C371  1  0.97612381  0.83398992  0.75259442  1
