# generated using pymatgen
data_ZnH3(C2O)4
_symmetry_space_group_name_H-M   'P 1'
_cell_length_a   8.04534545
_cell_length_b   15.47648414
_cell_length_c   17.04185626
_cell_angle_alpha   90.00000000
_cell_angle_beta   90.00000000
_cell_angle_gamma   90.00000000
_symmetry_Int_Tables_number   1
_chemical_formula_structural   ZnH3(C2O)4
_chemical_formula_sum   'Zn8 H24 C64 O32'
_cell_volume   2121.94391877
_cell_formula_units_Z   8
loop_
 _symmetry_equiv_pos_site_id
 _symmetry_equiv_pos_as_xyz
  1  'x, y, z'
loop_
 _atom_site_type_symbol
 _atom_site_label
 _atom_site_symmetry_multiplicity
 _atom_site_fract_x
 _atom_site_fract_y
 _atom_site_fract_z
 _atom_site_occupancy
  H  H0  1  0.14243889  0.17243759  0.13230438  1
  C  C1  1  0.09708265  0.17254710  0.07057767  1
  O  O2  1  0.41834674  0.14561148  0.10475043  1
  C  C3  1  0.19709740  0.13907989  0.01133076  1
  C  C4  1  0.37569411  0.12310211  0.04131828  1
  O  O5  1  0.44375143  0.42557910  0.23725617  1
  O  O6  1  0.13755423  0.05485939  0.38847429  1
  H  H7  1  0.20908328  0.43901895  0.45215971  1
  C  C8  1  0.18687679  0.37503761  0.43066178  1
  C  C9  1  0.06142985  0.27894597  0.33351807  1
  C  C10  1  0.04773822  0.44061083  0.31495880  1
  C  C11  1  0.25376727  0.30930334  0.47481840  1
  C  C12  1  0.13103459  0.21192629  0.37747536  1
  C  C13  1  0.21786612  0.22477006  0.44692464  1
  C  C14  1  0.09585661  0.36108553  0.36129037  1
  C  C15  1  0.09268751  0.12097187  0.35130626  1
  H  H16  1  0.25832170  0.16699414  0.47988496  1
  O  O17  1  0.01444242  0.10746331  0.28702687  1
  H  H18  1  0.20422997  0.25335799  0.62684980  1
  C  C19  1  0.32201976  0.29380448  0.62079391  1
  C  C20  1  0.42825663  0.30640709  0.68391618  1
  C  C21  1  0.35464410  0.33288934  0.54720771  1
  O  O22  1  0.46194415  0.02426604  0.51635211  1
  C  C23  1  0.49198527  0.38895899  0.54310684  1
  Zn  Zn24  1  0.20782805  0.09121024  0.74574070  1
  O  O25  1  0.43256258  0.04475256  0.81144243  1
  H  H26  1  0.22885121  0.10221778  0.88971371  1
  C  C27  1  0.14538665  0.12926063  0.93637651  1
  O  O28  1  0.48862125  0.26873230  0.81865318  1
  O  O29  1  0.47761647  0.08641562  0.99056596  1
  C  C30  1  0.39096804  0.26596491  0.75977613  1
  O  O31  1  0.26413631  0.22034280  0.75895483  1
  H  H32  1  0.02301771  0.73309175  0.15984359  1
  C  C33  1  0.14489760  0.67139774  0.06089360  1
  C  C34  1  0.22339783  0.84959549  0.02541117  1
  C  C35  1  0.10473039  0.73860735  0.11168504  1
  C  C36  1  0.14742193  0.82385310  0.09418125  1
  C  C37  1  0.10497291  0.57549165  0.07399470  1
  O  O38  1  0.08093172  0.55507376  0.15098021  1
  O  O39  1  0.10384865  0.52002631  0.02693532  1
  C  C40  1  0.10911249  0.89056058  0.15741069  1
  H  H41  1  0.26299739  0.91601711  0.01079994  1
  O  O42  1  0.02333543  0.86352942  0.21696249  1
  Zn  Zn43  1  0.29417185  0.53462766  0.22674946  1
  O  O44  1  0.12221906  0.96856595  0.15170472  1
  O  O45  1  0.44605791  0.64937104  0.22222171  1
  C  C46  1  0.02303348  0.75558703  0.47091561  1
  H  H47  1  0.00851289  0.69575260  0.43352598  1
  C  C48  1  0.47173112  0.80812118  0.30989084  1
  Zn  Zn49  1  0.35413290  0.98197478  0.36515496  1
  H  H50  1  0.37610649  0.80547903  0.26550668  1
  O  O51  1  0.10554770  0.51251877  0.32740061  1
  O  O52  1  0.33434959  0.64094868  0.49677378  1
  C  C53  1  0.49383340  0.87874497  0.36137189  1
  C  C54  1  0.16410331  0.83669829  0.56925607  1
  H  H55  1  0.27437097  0.84335907  0.60904983  1
  C  C56  1  0.03998808  0.90174704  0.56561005  1
  O  O57  1  0.42073296  0.72544262  0.58671345  1
  C  C58  1  0.15556139  0.76381998  0.52197676  1
  C  C59  1  0.30550615  0.70453844  0.53646185  1
  C  C60  1  0.05543436  0.98802918  0.60588260  1
  O  O61  1  0.17805118  0.99734113  0.65102029  1
  C  C62  1  0.37868935  0.79364320  0.90715157  1
  C  C63  1  0.40192911  0.87984617  0.88070018  1
  H  H64  1  0.33789549  0.93700846  0.90348679  1
  C  C65  1  0.44814646  0.72602641  0.86164914  1
  H  H66  1  0.26102160  0.63940097  0.95571824  1
  H  H67  1  0.44006842  0.66019800  0.88150258  1
  C  C68  1  0.26606204  0.77923234  0.97594601  1
  C  C69  1  0.21933984  0.69250476  0.99132939  1
  H  H70  1  0.77460049  0.36498202  0.08998970  1
  C  C71  1  0.64382194  0.31808900  0.19365690  1
  C  C72  1  0.78342461  0.15670448  0.16771560  1
  C  C73  1  0.94101803  0.20679085  0.05216219  1
  C  C74  1  0.75659992  0.30880808  0.13239153  1
  O  O75  1  0.63124776  0.46514523  0.15281411  1
  C  C76  1  0.82583755  0.22774671  0.12120115  1
  H  H77  1  0.82714697  0.08825564  0.15455646  1
  C  C78  1  0.56698599  0.40800682  0.19469615  1
  C  C79  1  0.66559188  0.17113605  0.22690686  1
  C  C80  1  0.59685959  0.25035348  0.24565209  1
  H  H81  1  0.98917486  0.26859851  0.28114014  1
  C  C82  1  0.61473207  0.09320595  0.27680464  1
  O  O83  1  0.67473844  0.01841080  0.26221816  1
  O  O84  1  0.93643019  0.42327885  0.26307950  1
  H  H85  1  0.52086254  0.42428366  0.48805703  1
  O  O86  1  0.51211914  0.10679206  0.32836960  1
  H  H87  1  0.50605166  0.26076980  0.29351436  1
  C  C88  1  0.57410719  0.35635576  0.67937962  1
  H  H89  1  0.66007943  0.36654830  0.73116136  1
  C  C90  1  0.74655809  0.46031544  0.60278974  1
  C  C91  1  0.59681563  0.39533715  0.60810279  1
  Zn  Zn92  1  0.78207793  0.08642320  0.69350223  1
  O  O93  1  0.85537514  0.44998584  0.64985068  1
  O  O94  1  0.57012983  0.13846253  0.59496343  1
  C  C95  1  0.51618258  0.08153464  0.55570329  1
  O  O96  1  0.94108268  0.04222029  0.60414244  1
  O  O97  1  0.75644100  0.16917597  0.82758966  1
  H  H98  1  0.75353520  0.21708134  0.96155247  1
  C  C99  1  0.89210469  0.13780140  0.84123949  1
  C  C100  1  0.87756847  0.19664557  0.97594698  1
  Zn  Zn101  1  0.52860922  0.14874755  0.88617845  1
  C  C102  1  0.97955445  0.15283212  0.92150427  1
  O  O103  1  0.96386648  0.09094271  0.78912877  1
  Zn  Zn104  1  0.85289732  0.53577807  0.18778400  1
  H  H105  1  0.79902800  0.68319941  0.37452296  1
  C  C106  1  0.89778074  0.81766562  0.46731173  1
  C  C107  1  0.75146108  0.81431325  0.41521323  1
  H  H108  1  0.62506482  0.94045523  0.45916928  1
  C  C109  1  0.72251705  0.74178564  0.36804835  1
  C  C110  1  0.57084860  0.65984924  0.26613794  1
  C  C111  1  0.59350615  0.74064536  0.31574163  1
  C  C112  1  0.62965144  0.88398634  0.41441429  1
  O  O113  1  0.67992615  0.60123207  0.26996710  1
  Zn  Zn114  1  0.92444111  0.98248567  0.26760047  1
  O  O115  1  0.73870130  0.52718154  0.55679226  1
  O  O116  1  0.71097077  0.67618976  0.69528437  1
  Zn  Zn117  1  0.62691800  0.64026533  0.58928968  1
  H  H118  1  0.65139396  0.84365231  0.71922149  1
  O  O119  1  0.60272634  0.98810114  0.71989591  1
  C  C120  1  0.90637222  0.89206165  0.51460071  1
  H  H121  1  0.80223331  0.93825968  0.50913904  1
  O  O122  1  0.63638991  0.59881808  0.79800709  1
  C  C123  1  0.63641849  0.66678786  0.76447858  1
  C  C124  1  0.50304019  0.89431901  0.81629962  1
  C  C125  1  0.57606429  0.82761365  0.77275331  1
  C  C126  1  0.52246522  0.98221501  0.78258591  1
  C  C127  1  0.54358806  0.74228004  0.79649204  1
