# generated using pymatgen
data_CuH4(C3O)4
_symmetry_space_group_name_H-M   'P 1'
_cell_length_a   16.70426740
_cell_length_b   27.36502397
_cell_length_c   21.25960083
_cell_angle_alpha   90.00000000
_cell_angle_beta   90.00000000
_cell_angle_gamma   90.00000000
_symmetry_Int_Tables_number   1
_chemical_formula_structural   CuH4(C3O)4
_chemical_formula_sum   'Cu24 H96 C288 O96'
_cell_volume   9718.03306265
_cell_formula_units_Z   24
loop_
 _symmetry_equiv_pos_site_id
 _symmetry_equiv_pos_as_xyz
  1  'x, y, z'
loop_
 _atom_site_type_symbol
 _atom_site_label
 _atom_site_symmetry_multiplicity
 _atom_site_fract_x
 _atom_site_fract_y
 _atom_site_fract_z
 _atom_site_occupancy
  C  C0  1  0.11466344  0.11122775  0.42715063  1
  C  C1  1  0.15507511  0.10025117  0.30604471  1
  C  C2  1  0.13044654  0.10835499  0.37161222  1
  C  C3  1  0.12525512  0.12620490  0.25256727  1
  C  C4  1  0.13395800  0.14813885  0.14191317  1
  H  H5  1  0.06790246  0.14510651  0.25292486  1
  O  O6  1  0.17313456  0.14940737  0.09056878  1
  C  C7  1  0.16561346  0.12281912  0.19711865  1
  H  H8  1  0.09928488  0.04168335  0.23704695  1
  O  O9  1  0.06346633  0.16478306  0.14375629  1
  Cu  Cu10  1  0.15372779  0.20786722  0.04434696  1
  C  C11  1  0.06493395  0.01425343  0.26554536  1
  C  C12  1  0.22878371  0.07339760  0.30304599  1
  C  C13  1  0.24061490  0.09841647  0.19487558  1
  Cu  Cu14  1  0.00321827  0.20559616  0.08485625  1
  C  C15  1  0.00435125  0.02664021  0.30917665  1
  C  C16  1  0.12299206  0.30840508  0.03105536  1
  C  C17  1  0.05300783  0.33306878  0.00940454  1
  C  C18  1  0.02392048  0.37027644  0.04712968  1
  O  O19  1  0.13972652  0.26701757  0.00686420  1
  O  O20  1  0.22620680  0.45528701  0.01665768  1
  H  H21  1  0.05522327  0.38116494  0.08963343  1
  O  O22  1  0.16912768  0.32911482  0.07125783  1
  H  H23  1  0.14713799  0.13245161  0.88891100  1
  C  C24  1  0.15447849  0.12132736  0.60816009  1
  C  C25  1  0.14604901  0.06622827  0.79725816  1
  C  C26  1  0.08369174  0.09929175  0.63318915  1
  C  C27  1  0.08873983  0.11447178  0.88328275  1
  C  C28  1  0.07499309  0.07845926  0.83473659  1
  C  C29  1  0.21288909  0.13645777  0.65738445  1
  C  C30  1  0.16503473  0.12745759  0.54067919  1
  H  H31  1  0.08091931  0.08888146  0.68249724  1
  C  C32  1  0.02891632  0.11963865  0.92742758  1
  C  C33  1  0.04405634  0.14902644  0.98332166  1
  O  O34  1  0.11113485  0.17344137  0.97964799  1
  C  C35  1  0.20610111  0.04845146  0.77511436  1
  H  H36  1  0.22029477  0.13976100  0.52348502  1
  C  C37  1  0.02496927  0.08459920  0.58900929  1
  C  C38  1  0.02961440  0.09310556  0.52237727  1
  C  C39  1  0.24667411  0.15179211  0.70364856  1
  H  H40  1  0.21368240  0.24072031  0.76204829  1
  C  C41  1  0.10442018  0.11081252  0.50011686  1
  C  C42  1  0.07274247  0.48609329  0.99179629  1
  H  H43  1  0.08522647  0.47806382  0.76594055  1
  O  O44  1  0.17511545  0.41584371  0.73109063  1
  C  C45  1  0.20332169  0.47566819  0.80738301  1
  H  H46  1  0.04811983  0.28956630  0.92024802  1
  H  H47  1  0.10302237  0.39766061  0.88161394  1
  C  C48  1  0.11018307  0.45013774  0.95453234  1
  C  C49  1  0.22142756  0.43055358  0.77020004  1
  C  C50  1  0.01686127  0.31440553  0.95418304  1
  C  C51  1  0.07065608  0.42544371  0.90680614  1
  O  O52  1  0.22927694  0.40249018  0.94037975  1
  C  C53  1  0.19417030  0.43481092  0.97036241  1
  C  C54  1  0.12816644  0.49620413  0.79729870  1
  H  H55  1  0.10304888  0.50330646  0.03187007  1
  C  C56  1  0.15774283  0.96470079  0.20735941  1
  C  C57  1  0.12055795  0.81884239  0.24925033  1
  C  C58  1  0.14920392  0.84413000  0.14500353  1
  O  O59  1  0.10599220  0.80248071  0.35663305  1
  C  C60  1  0.21133146  0.96671598  0.16887958  1
  H  H61  1  0.23158135  0.85738198  0.22418177  1
  C  C62  1  0.05015533  0.92851613  0.28902453  1
  C  C63  1  0.17315443  0.84167012  0.20629919  1
  H  H64  1  0.07243890  0.89180656  0.27834042  1
  C  C65  1  0.09106117  0.96595045  0.25539969  1
  C  C66  1  0.07819187  0.82445075  0.12098371  1
  C  C67  1  0.20950043  0.86799250  0.10092551  1
  O  O68  1  0.22816345  0.80862240  0.32373264  1
  O  O69  1  0.19599153  0.87640410  0.04819707  1
  H  H70  1  0.06241588  0.82626594  0.07098823  1
  C  C71  1  0.15049274  0.81430370  0.31580164  1
  H  H72  1  0.18424272  0.97873803  0.05095106  1
  C  C73  1  0.04867312  0.80193273  0.23050335  1
  C  C74  1  0.24971759  0.97893260  0.06253915  1
  C  C75  1  0.03009131  0.80048221  0.16499611  1
  H  H76  1  0.00850205  0.79154886  0.26802740  1
  C  C77  1  0.10739915  0.53878059  0.83062856  1
  C  C78  1  0.16388621  0.55746752  0.87454060  1
  H  H79  1  0.14812539  0.59049957  0.90065855  1
  C  C80  1  0.02286315  0.55699879  0.82941827  1
  C  C81  1  0.23318709  0.53346885  0.88818575  1
  H  H82  1  0.24359262  0.94463283  0.77128657  1
  O  O83  1  0.22801632  0.98397858  0.92903368  1
  O  O84  1  0.39632728  0.06120671  0.20018964  1
  C  C85  1  0.34555460  0.04741665  0.24038151  1
  C  C86  1  0.44495071  0.16389616  0.41295891  1
  C  C87  1  0.46226347  0.11439186  0.41365376  1
  H  H88  1  0.44368498  0.18837983  0.37081586  1
  C  C89  1  0.43589582  0.18420395  0.47233917  1
  C  C90  1  0.26700185  0.07371348  0.24664174  1
  O  O91  1  0.35813338  0.01466520  0.27941410  1
  H  H92  1  0.27278016  0.09691328  0.15108827  1
  H  H93  1  0.25324271  0.05255320  0.34365822  1
  O  O94  1  0.45109846  0.11221639  0.30458945  1
  C  C95  1  0.47117674  0.08623395  0.46823731  1
  H  H96  1  0.49009407  0.04681001  0.46734736  1
  C  C97  1  0.46693592  0.08678048  0.35275555  1
  Cu  Cu98  1  0.48337038  0.10488861  0.22712767  1
  O  O99  1  0.48987459  0.04358548  0.34787448  1
  C  C100  1  0.41488776  0.23856841  0.48066222  1
  O  O101  1  0.44516432  0.26892288  0.06741739  1
  C  C102  1  0.49435315  0.38737868  0.11875676  1
  C  C103  1  0.48443654  0.48542859  0.46804988  1
  C  C104  1  0.43596044  0.30342634  0.09980348  1
  Cu  Cu105  1  0.27322921  0.31845159  0.09789984  1
  O  O106  1  0.37357172  0.31154503  0.13400362  1
  Cu  Cu107  1  0.32993652  0.48203103  0.02244777  1
  O  O108  1  0.40817345  0.26283648  0.43194639  1
  O  O109  1  0.40866394  0.43957997  0.01652225  1
  H  H110  1  0.43993568  0.40093418  0.13961624  1
  C  C111  1  0.38592889  0.16650307  0.84150023  1
  C  C112  1  0.45908530  0.07837898  0.58593662  1
  C  C113  1  0.34845112  0.14716261  0.78850516  1
  H  H114  1  0.36960381  0.11281629  0.76947294  1
  Cu  Cu115  1  0.39742663  0.03817879  0.87285268  1
  C  C116  1  0.43836373  0.05464971  0.63087755  1
  C  C117  1  0.45024834  0.13390672  0.86416849  1
  H  H118  1  0.42920519  0.17655867  0.57440886  1
  C  C119  1  0.44602399  0.16065772  0.52814746  1
  C  C120  1  0.36074455  0.20961794  0.86907489  1
  C  C121  1  0.32914497  0.05197431  0.71289575  1
  C  C122  1  0.28468713  0.17251399  0.76119263  1
  O  O123  1  0.45485811  0.09180727  0.84256892  1
  H  H124  1  0.39007798  0.22201198  0.91468477  1
  H  H125  1  0.31962605  0.09034429  0.70537505  1
  C  C126  1  0.39340215  0.02753888  0.68318567  1
  C  C127  1  0.46515361  0.10913830  0.52844745  1
  C  C128  1  0.26506062  0.21971188  0.78401530  1
  C  C129  1  0.27505732  0.02207807  0.75050413  1
  C  C130  1  0.30226125  0.23558024  0.83721052  1
  O  O131  1  0.40241507  0.25583513  0.53675940  1
  C  C132  1  0.25743517  0.49403135  0.85104038  1
  C  C133  1  0.48404491  0.38942235  0.94686177  1
  C  C134  1  0.40684623  0.37480946  0.64534013  1
  C  C135  1  0.41762104  0.39711127  0.98911053  1
  H  H136  1  0.31462080  0.47405759  0.85972076  1
  Cu  Cu137  1  0.46916525  0.29943262  0.57362508  1
  H  H138  1  0.41313638  0.39843351  0.52666616  1
  O  O139  1  0.40519769  0.36985144  0.70450803  1
  Cu  Cu140  1  0.26307987  0.33920034  0.97391126  1
  C  C141  1  0.46489627  0.45533802  0.66600530  1
  O  O142  1  0.39237542  0.34142390  0.60517048  1
  H  H143  1  0.46292452  0.45022640  0.71688934  1
  C  C144  1  0.43584154  0.42052994  0.62355462  1
  O  O145  1  0.29157971  0.41129455  0.77656578  1
  C  C146  1  0.43777231  0.42736710  0.55803823  1
  C  C147  1  0.47625832  0.46951329  0.53441172  1
  O  O148  1  0.26449543  0.31814069  0.82064953  1
  H  H149  1  0.47334568  0.31086213  0.94488716  1
  Cu  Cu150  1  0.32794564  0.34632181  0.76080090  1
  C  C151  1  0.28939897  0.28645901  0.85893849  1
  O  O152  1  0.31344256  0.29599083  0.91391193  1
  O  O153  1  0.36879500  0.36296253  0.99912552  1
  C  C154  1  0.35030193  0.63527225  0.15446636  1
  C  C155  1  0.39051945  0.59481678  0.12933259  1
  C  C156  1  0.39256324  0.67820325  0.15340676  1
  C  C157  1  0.46642788  0.59420491  0.10262940  1
  C  C158  1  0.34468441  0.54785284  0.12517354  1
  C  C159  1  0.35898327  0.72424510  0.17746024  1
  C  C160  1  0.47060567  0.67953003  0.13113977  1
  O  O161  1  0.29771162  0.72126150  0.21297909  1
  H  H162  1  0.29074751  0.63296473  0.17519840  1
  H  H163  1  0.49499588  0.55897898  0.08756916  1
  H  H164  1  0.49682151  0.61154623  0.39867590  1
  H  H165  1  0.41909995  0.72593199  0.40247004  1
  O  O166  1  0.28132147  0.54344866  0.14932204  1
  O  O167  1  0.37925240  0.51361759  0.09271724  1
  C  C168  1  0.49273078  0.50704912  0.41924171  1
  O  O169  1  0.34487821  0.84116592  0.48569803  1
  O  O170  1  0.28250684  0.86904936  0.12579853  1
  O  O171  1  0.39019806  0.76358668  0.15985534  1
  C  C172  1  0.40616357  0.80218738  0.39100561  1
  C  C173  1  0.39303792  0.98503088  0.03274040  1
  C  C174  1  0.45694701  0.84420342  0.29990998  1
  C  C175  1  0.49086313  0.80041408  0.28130447  1
  C  C176  1  0.49773122  0.81882511  0.02195291  1
  O  O177  1  0.48927322  0.88408722  0.20654210  1
  C  C178  1  0.36925510  0.80200780  0.46448493  1
  C  C179  1  0.41571072  0.97845747  0.09397711  1
  C  C180  1  0.27910607  0.97093080  0.12313872  1
  O  O181  1  0.46441159  0.77712709  0.03220645  1
  C  C182  1  0.36225031  0.96803132  0.14069321  1
  Cu  Cu183  1  0.37738292  0.86757451  0.08304929  1
  C  C184  1  0.47894203  0.75601153  0.31547335  1
  Cu  Cu185  1  0.26653916  0.76401103  0.27194019  1
  Cu  Cu186  1  0.45648315  0.98566146  0.31086117  1
  Cu  Cu187  1  0.36720770  0.77580395  0.07313813  1
  C  C188  1  0.46175248  0.88744654  0.25978422  1
  C  C189  1  0.43265131  0.75768167  0.37151157  1
  C  C190  1  0.41692879  0.84491431  0.35867918  1
  H  H191  1  0.37978936  0.96198429  0.18845418  1
  O  O192  1  0.47235932  0.85896644  0.04267160  1
  O  O193  1  0.42363908  0.92456140  0.28102275  1
  H  H194  1  0.38779357  0.87965346  0.37545471  1
  C  C195  1  0.31077181  0.98187915  0.01761863  1
  O  O196  1  0.37602761  0.76233391  0.49510829  1
  H  H197  1  0.44412271  0.99136623  0.00050561  1
  C  C198  1  0.29207306  0.54978010  0.93507273  1
  C  C199  1  0.38577029  0.67818894  0.74717532  1
  C  C200  1  0.34130694  0.71117945  0.84991759  1
  H  H201  1  0.33507575  0.67216787  0.86556554  1
  O  O202  1  0.34379736  0.51856547  0.95293661  1
  O  O203  1  0.37497360  0.63413520  0.76946517  1
  C  C204  1  0.37078901  0.72279717  0.79015758  1
  O  O205  1  0.39502493  0.68591813  0.69228736  1
  Cu  Cu206  1  0.44892295  0.58352738  0.77355862  1
  O  O207  1  0.46392661  0.66144670  0.92932781  1
  O  O208  1  0.30045645  0.70364714  0.97435163  1
  Cu  Cu209  1  0.36552225  0.64229207  0.96753610  1
  C  C210  1  0.31329158  0.74751045  0.95838233  1
  O  O211  1  0.28621013  0.59277380  0.95409609  1
  C  C212  1  0.49667633  0.64376088  0.88152570  1
  O  O213  1  0.48557302  0.60166856  0.86151634  1
  H  H214  1  0.46529572  0.96114043  0.67139471  1
  O  O215  1  0.31264511  0.78268351  0.99526580  1
  C  C216  1  0.37131105  0.80960686  0.80356873  1
  C  C217  1  0.34815228  0.79899016  0.86827289  1
  C  C218  1  0.35747958  0.94968403  0.72846611  1
  C  C219  1  0.33426973  0.75137274  0.89149297  1
  C  C220  1  0.38082134  0.76853979  0.76472969  1
  H  H221  1  0.39329346  0.77174715  0.71540979  1
  C  C222  1  0.37510933  0.85738920  0.77040085  1
  C  C223  1  0.29493989  0.98337833  0.94980053  1
  C  C224  1  0.41377022  0.97867509  0.69470424  1
  O  O225  1  0.35632828  0.98417082  0.90950278  1
  C  C226  1  0.28639447  0.97092831  0.75153097  1
  C  C227  1  0.37573908  0.89722492  0.74623688  1
  H  H228  1  0.33863820  0.82911879  0.90150032  1
  C  C229  1  0.64890295  0.06402669  0.45718890  1
  C  C230  1  0.66936642  0.11432959  0.43106267  1
  C  C231  1  0.63249459  0.13329701  0.07966043  1
  H  H232  1  0.62359610  0.02861002  0.36933224  1
  C  C233  1  0.62581320  0.02480486  0.42030098  1
  O  O234  1  0.60933023  0.16382243  0.18024451  1
  C  C235  1  0.58771185  0.13511866  0.14125876  1
  H  H236  1  0.55150806  0.07561352  0.05011318  1
  C  C237  1  0.60196972  0.09889436  0.03752743  1
  Cu  Cu238  1  0.66043624  0.21173171  0.46838379  1
  C  C239  1  0.69805506  0.16365171  0.06594167  1
  O  O240  1  0.52477866  0.10587612  0.15195644  1
  O  O241  1  0.66393404  0.12523170  0.37706797  1
  O  O242  1  0.69614231  0.14606757  0.47126299  1
  H  H243  1  0.72022167  0.19305593  0.09770590  1
  C  C244  1  0.73739565  0.15870783  0.00940449  1
  O  O245  1  0.74296471  0.29905506  0.35801937  1
  C  C246  1  0.68881125  0.45016887  0.48584170  1
  H  H247  1  0.70610056  0.48888649  0.47698191  1
  C  C248  1  0.68355298  0.41684935  0.43500529  1
  C  C249  1  0.65613525  0.36875722  0.44570894  1
  C  C250  1  0.72543746  0.45223883  0.32193940  1
  O  O251  1  0.61018416  0.27137210  0.47069420  1
  C  C252  1  0.71198568  0.35113493  0.02560935  1
  H  H253  1  0.58023207  0.29069646  0.04032877  1
  C  C254  1  0.63398869  0.36265930  0.05817738  1
  C  C255  1  0.55813657  0.42020504  0.11470450  1
  C  C256  1  0.55529792  0.46373223  0.15611643  1
  H  H257  1  0.50976248  0.46914648  0.30518138  1
  C  C258  1  0.57397925  0.32722283  0.06232277  1
  C  C259  1  0.74590054  0.47014225  0.25635833  1
  C  C260  1  0.70555983  0.43492708  0.37161833  1
  C  C261  1  0.50384870  0.34116317  0.09323531  1
  C  C262  1  0.62948131  0.40939771  0.08215729  1
  H  H263  1  0.65458069  0.34550073  0.40351713  1
  H  H264  1  0.68065980  0.43319483  0.07699896  1
  O  O265  1  0.73464650  0.30590638  0.02330703  1
  C  C266  1  0.54571280  0.49737660  0.19245959  1
  C  C267  1  0.62438471  0.05999836  0.93052757  1
  O  O268  1  0.65988964  0.10841385  0.78010330  1
  O  O269  1  0.66726923  0.18613865  0.81154281  1
  H  H270  1  0.58955336  0.04478105  0.77566455  1
  Cu  Cu271  1  0.59252567  0.18708573  0.86781709  1
  H  H272  1  0.68203676  0.08679752  0.55038419  1
  C  C273  1  0.69681013  0.14650981  0.78612729  1
  C  C274  1  0.61046439  0.02663928  0.89428061  1
  C  C275  1  0.71340094  0.12475637  0.96597297  1
  C  C276  1  0.65767249  0.05660683  0.52237563  1
  C  C277  1  0.62654280  0.01430703  0.54801819  1
  C  C278  1  0.64792084  0.09363758  0.98154534  1
  C  C279  1  0.59655277  0.00578369  0.78672860  1
  C  C280  1  0.61962199  0.00538762  0.61622074  1
  O  O281  1  0.50255751  0.15331021  0.89893628  1
  H  H282  1  0.74621913  0.07418105  0.71595964  1
  H  H283  1  0.74167618  0.12461534  0.91761199  1
  O  O284  1  0.56347067  0.25403301  0.88009327  1
  C  C285  1  0.53012173  0.43058923  0.93353512  1
  H  H286  1  0.51453510  0.46528121  0.95877269  1
  O  O287  1  0.67681045  0.28743809  0.85234746  1
  C  C288  1  0.64482239  0.38513129  0.55455428  1
  H  H289  1  0.67278766  0.37624515  0.84404472  1
  O  O290  1  0.57951043  0.29122581  0.56888455  1
  C  C291  1  0.63164908  0.35291081  0.50367614  1
  C  C292  1  0.60652095  0.29155275  0.87477487  1
  C  C293  1  0.66812987  0.46807467  0.60183217  1
  H  H294  1  0.62947697  0.37421809  0.60051211  1
  C  C295  1  0.59796325  0.42723391  0.89458903  1
  C  C296  1  0.50643956  0.34308940  0.92683276  1
  C  C297  1  0.57754829  0.34001744  0.89201448  1
  C  C298  1  0.64340866  0.47312753  0.87716818  1
  O  O299  1  0.66177820  0.44799706  0.65107125  1
  C  C300  1  0.66696404  0.43356906  0.54376353  1
  C  C301  1  0.60900549  0.30168529  0.51594949  1
  C  C302  1  0.62075945  0.38159401  0.87344154  1
  C  C303  1  0.50179460  0.49800015  0.64199975  1
  C  C304  1  0.58916276  0.64058192  0.07789973  1
  C  C305  1  0.66018870  0.64713313  0.06754555  1
  C  C306  1  0.68643687  0.69908765  0.28985466  1
  H  H307  1  0.69021943  0.67024730  0.32335462  1
  O  O308  1  0.67601789  0.73639365  0.42218136  1
  C  C309  1  0.68084287  0.68822254  0.22413117  1
  C  C310  1  0.69642169  0.63713688  0.20456026  1
  H  H311  1  0.68760635  0.53620737  0.28761542  1
  C  C312  1  0.66686601  0.72546878  0.17982821  1
  H  H313  1  0.66327903  0.72037453  0.12924069  1
  C  C314  1  0.68032441  0.74545157  0.31138908  1
  C  C315  1  0.74459174  0.66008944  0.06278935  1
  C  C316  1  0.71474012  0.59544726  0.19245140  1
  H  H317  1  0.74939978  0.73702436  0.09598084  1
  C  C318  1  0.52893306  0.53117947  0.24559751  1
  C  C319  1  0.51966986  0.50733681  0.30602895  1
  C  C320  1  0.71891380  0.51852597  0.25008113  1
  H  H321  1  0.55085587  0.60064424  0.19468702  1
  C  C322  1  0.53612903  0.58203754  0.24019690  1
  C  C323  1  0.50994248  0.53651931  0.35907824  1
  C  C324  1  0.52300509  0.61007417  0.29597115  1
  C  C325  1  0.51038660  0.63834732  0.10709907  1
  H  H326  1  0.50152759  0.71500992  0.13094313  1
  C  C327  1  0.50799740  0.58818412  0.35532857  1
  C  C328  1  0.74581133  0.54436629  0.19572845  1
  C  C329  1  0.51465745  0.66370253  0.29303738  1
  C  C330  1  0.50180206  0.70701354  0.29870368  1
  C  C331  1  0.65355356  0.81722429  0.16159090  1
  C  C332  1  0.67503384  0.76355082  0.37921820  1
  Cu  Cu333  1  0.58424894  0.91607937  0.18226071  1
  O  O334  1  0.55158095  0.95487199  0.34772150  1
  O  O335  1  0.65117145  0.81387371  0.10631910  1
  C  C336  1  0.66106007  0.77211687  0.20191641  1
  C  C337  1  0.59697899  0.98107885  0.44836479  1
  O  O338  1  0.52571029  0.97329921  0.16656592  1
  O  O339  1  0.53984194  0.90443739  0.42920083  1
  C  C340  1  0.55976211  0.94475510  0.40586534  1
  O  O341  1  0.64784386  0.85913652  0.19421039  1
  O  O342  1  0.66444700  0.81136305  0.38637272  1
  O  O343  1  0.55386614  0.98776917  0.06766521  1
  Cu  Cu344  1  0.59455624  0.84737085  0.43523136  1
  H  H345  1  0.67295806  0.82012879  0.28221614  1
  C  C346  1  0.67016732  0.78225055  0.26696550  1
  H  H347  1  0.74872074  0.84121995  0.45761788  1
  H  H348  1  0.52247965  0.79938803  0.23642445  1
  C  C349  1  0.50715065  0.98057805  0.10826074  1
  H  H350  1  0.60372105  0.89481467  0.01814868  1
  H  H351  1  0.60077464  0.61385157  0.79489505  1
  C  C352  1  0.60055402  0.65360696  0.79865364  1
  H  H353  1  0.64824124  0.60656620  0.90693365  1
  C  C354  1  0.65219830  0.68151584  0.76110017  1
  O  O355  1  0.57479593  0.56700141  0.66833342  1
  C  C356  1  0.65574895  0.73185280  0.76487621  1
  C  C357  1  0.71788607  0.72546068  0.92388678  1
  C  C358  1  0.70969334  0.60081969  0.88868054  1
  C  C359  1  0.55303886  0.67558575  0.84370284  1
  Cu  Cu360  1  0.69003195  0.55846505  0.65822531  1
  O  O361  1  0.71099859  0.60967656  0.71253444  1
  C  C362  1  0.55693085  0.72619888  0.85292070  1
  C  C363  1  0.52933282  0.53405116  0.68797184  1
  C  C364  1  0.70301457  0.65815380  0.71199408  1
  H  H365  1  0.53400347  0.53860476  0.55927468  1
  O  O366  1  0.68109545  0.51384020  0.59526517  1
  O  O367  1  0.72881013  0.68443397  0.67329808  1
  C  C368  1  0.74457893  0.68722895  0.90477802  1
  H  H369  1  0.57251043  0.73788353  0.97818936  1
  C  C370  1  0.73425354  0.55387767  0.86744087  1
  C  C371  1  0.50633276  0.50399063  0.57691590  1
  C  C372  1  0.68359990  0.50985429  0.87415704  1
  O  O373  1  0.50882423  0.53352447  0.74573332  1
  H  H374  1  0.50814877  0.74720118  0.87733881  1
  C  C375  1  0.62677901  0.85957405  0.99728139  1
  C  C376  1  0.73788350  0.88726621  0.53803024  1
  C  C377  1  0.60710731  0.77327333  0.97281530  1
  C  C378  1  0.59867224  0.92184756  0.74696055  1
  C  C379  1  0.61947346  0.93589452  0.86287329  1
  C  C380  1  0.59603375  0.97381934  0.51289604  1
  C  C381  1  0.60564612  0.75344044  0.81130015  1
  H  H382  1  0.69147681  0.75278445  0.73543552  1
  O  O383  1  0.72803935  0.94638455  0.97478188  1
  C  C384  1  0.60837545  0.98981931  0.66902911  1
  O  O385  1  0.63104490  0.83121063  0.51471887  1
  C  C386  1  0.60641842  0.80762174  0.81358135  1
  C  C387  1  0.73440997  0.81419175  0.94814620  1
  C  C388  1  0.60672129  0.85194611  0.81646134  1
  O  O389  1  0.62577137  0.87308547  0.60175424  1
  H  H390  1  0.59239201  0.89656249  0.70901029  1
  C  C391  1  0.70355449  0.85692896  0.97334737  1
  C  C392  1  0.60227474  0.97305960  0.73609348  1
  H  H393  1  0.63366007  0.92339049  0.90982325  1
  C  C394  1  0.68434087  0.77255680  0.94849352  1
  C  C395  1  0.60680695  0.98675744  0.84694897  1
  C  C396  1  0.60883419  0.90575038  0.81037791  1
  H  H397  1  0.73438891  0.94004897  0.62108788  1
  C  C398  1  0.66115773  0.85980398  0.55788925  1
  H  H399  1  0.57340282  0.93781353  0.52827726  1
  C  C400  1  0.57658281  0.81818404  0.99327909  1
  C  C401  1  0.95359599  0.12090094  0.30554157  1
  C  C402  1  0.92088022  0.17031561  0.29885068  1
  C  C403  1  0.94561587  0.19725508  0.24542388  1
  C  C404  1  0.86685900  0.19254295  0.34122418  1
  C  C405  1  0.83339294  0.23768501  0.32657913  1
  H  H406  1  0.84933324  0.17256501  0.38454901  1
  O  O407  1  0.82893988  0.22145693  0.03743367  1
  C  C408  1  0.90817858  0.24082726  0.23134390  1
  C  C409  1  0.97997625  0.08010155  0.30746631  1
  H  H410  1  0.98411383  0.18554476  0.20683359  1
  H  H411  1  0.98350206  0.08091258  0.49104478  1
  O  O412  1  0.75405655  0.23612418  0.42165511  1
  O  O413  1  0.99306848  0.15871264  0.02502913  1
  O  O414  1  0.75563576  0.38301962  0.00915633  1
  O  O415  1  0.99674630  0.25472639  0.14794428  1
  H  H416  1  0.81775954  0.29640640  0.25770106  1
  C  C417  1  0.94795069  0.38785602  0.02985934  1
  C  C418  1  0.85046692  0.26208422  0.27036599  1
  Cu  Cu419  1  0.82807193  0.28341709  0.07067797  1
  O  O420  1  0.88196576  0.29416500  0.14688856  1
  C  C421  1  0.86418871  0.44900262  0.10275757  1
  C  C422  1  0.81588999  0.47390918  0.15196960  1
  C  C423  1  0.79492284  0.44946320  0.20829879  1
  H  H424  1  0.81589955  0.41226948  0.22080472  1
  C  C425  1  0.76874356  0.25896821  0.36784297  1
  C  C426  1  0.92851038  0.26440435  0.17197801  1
  C  C427  1  0.90316033  0.42126706  0.07041973  1
  C  C428  1  0.86519887  0.10221822  0.68537364  1
  C  C429  1  0.89025240  0.06216285  0.64198237  1
  C  C430  1  0.94712084  0.05743688  0.60927493  1
  C  C431  1  0.90910275  0.14666076  0.68282873  1
  C  C432  1  0.88807553  0.19059658  0.71149945  1
  C  C433  1  0.81725191  0.19042548  0.74659044  1
  C  C434  1  0.85707801  0.04782154  0.86019060  1
  O  O435  1  0.80562185  0.05232953  0.90582768  1
  O  O436  1  0.83147579  0.01390639  0.63084552  1
  H  H437  1  0.79054339  0.22357213  0.76829243  1
  C  C438  1  0.79180027  0.10378720  0.71916823  1
  O  O439  1  0.81523407  0.20598010  0.93911504  1
  H  H440  1  0.90287694  0.10813591  0.95901594  1
  C  C441  1  0.94914772  0.10241185  0.92204048  1
  O  O442  1  0.93428562  0.00659217  0.57089627  1
  C  C443  1  0.93664876  0.07420648  0.86905593  1
  O  O444  1  0.83783059  0.02847068  0.81172693  1
  C  C445  1  0.77244362  0.14710296  0.75169027  1
  H  H446  1  0.96308479  0.14726546  0.65362721  1
  C  C447  1  0.93345669  0.23711772  0.69799911  1
  H  H448  1  0.98273358  0.03351361  0.78898899  1
  C  C449  1  0.99636195  0.05980732  0.82716349  1
  O  O450  1  0.99348337  0.23787057  0.66844052  1
  Cu  Cu451  1  0.76411049  0.00207646  0.93958149  1
  C  C452  1  0.80112766  0.19493550  0.99521578  1
  O  O453  1  0.93522919  0.29112515  0.84271419  1
  Cu  Cu454  1  0.75289989  0.25149634  0.89517045  1
  C  C455  1  0.99406479  0.44314589  0.89202534  1
  H  H456  1  0.89157884  0.48987898  0.91130927  1
  O  O457  1  0.98148195  0.38780034  0.80278186  1
  C  C458  1  0.94858456  0.42073243  0.83575071  1
  Cu  Cu459  1  0.94509113  0.33070977  0.76761894  1
  H  H460  1  0.85401035  0.38476803  0.96025237  1
  O  O461  1  0.82274782  0.30864823  0.89128712  1
  O  O462  1  0.89835936  0.27561038  0.72487597  1
  C  C463  1  0.95749302  0.48108750  0.92221645  1
  O  O464  1  0.88412797  0.43819424  0.82439178  1
  C  C465  1  0.94131471  0.33182677  0.93955592  1
  C  C466  1  0.89733117  0.30836118  0.88919772  1
  C  C467  1  0.91005094  0.36882452  0.97407113  1
  C  C468  1  0.86808429  0.70062936  0.09252798  1
  C  C469  1  0.91518919  0.65938299  0.07445170  1
  H  H470  1  0.81097892  0.54713854  0.10666608  1
  C  C471  1  0.87125647  0.61831304  0.05173237  1
  H  H472  1  0.97800221  0.65957563  0.07588506  1
  C  C473  1  0.78791458  0.61727119  0.04327322  1
  C  C474  1  0.78477390  0.70322195  0.08688699  1
  C  C475  1  0.91703884  0.57764130  0.02337397  1
  C  C476  1  0.79383194  0.52349659  0.14654349  1
  C  C477  1  0.91292481  0.74120866  0.12237601  1
  C  C478  1  0.95713981  0.54397439  0.00452901  1
  H  H479  1  0.75395549  0.58927141  0.01698717  1
  H  H480  1  0.94109760  0.94441988  0.49707932  1
  C  C481  1  0.98398606  0.93772076  0.32771333  1
  C  C482  1  0.96128345  0.98828186  0.33622674  1
  H  H483  1  0.91264137  0.99451968  0.36456222  1
  C  C484  1  0.77914627  0.86911384  0.48809143  1
  C  C485  1  0.93988337  0.90499403  0.37085739  1
  C  C486  1  0.85696483  0.88731927  0.47179123  1
  C  C487  1  0.89865242  0.88632040  0.41106670  1
  C  C488  1  0.96236408  0.77121175  0.13793036  1
  C  C489  1  0.84562298  0.62862140  0.86399201  1
  C  C490  1  0.87082359  0.58071164  0.84962760  1
  H  H491  1  0.88608896  0.66015161  0.85829298  1
  C  C492  1  0.81163726  0.54319283  0.84782075  1
  C  C493  1  0.95437830  0.56917207  0.83428685  1
  C  C494  1  0.76737991  0.63778281  0.88565970  1
  H  H495  1  0.83488501  0.50635404  0.83846453  1
  C  C496  1  0.99758550  0.50457023  0.97115919  1
  C  C497  1  0.86734104  0.98860798  0.59112900  1
  C  C498  1  0.83841436  0.94337411  0.55873914  1
  C  C499  1  0.75770855  0.90191048  0.96948111  1
  H  H500  1  0.79391623  0.81607254  0.92536450  1
  O  O501  1  0.82540840  0.89388361  0.95791808  1
  C  C502  1  0.76639303  0.92363113  0.57973003  1
  C  C503  1  0.88402382  0.92734763  0.50857497  1
