# generated using pymatgen
data_ZnH4(C3O)4
_symmetry_space_group_name_H-M   'P 1'
_cell_length_a   27.45510058
_cell_length_b   15.50579811
_cell_length_c   17.87192410
_cell_angle_alpha   90.00000000
_cell_angle_beta   90.00000000
_cell_angle_gamma   90.00000000
_symmetry_Int_Tables_number   1
_chemical_formula_structural   ZnH4(C3O)4
_chemical_formula_sum   'Zn24 H96 C288 O96'
_cell_volume   7608.31483346
_cell_formula_units_Z   24
loop_
 _symmetry_equiv_pos_site_id
 _symmetry_equiv_pos_as_xyz
  1  'x, y, z'
loop_
 _atom_site_type_symbol
 _atom_site_label
 _atom_site_symmetry_multiplicity
 _atom_site_fract_x
 _atom_site_fract_y
 _atom_site_fract_z
 _atom_site_occupancy
  C  C0  1  0.21044864  0.09761295  0.10468793  1
  H  H1  1  0.06248679  0.30413626  0.35069733  1
  C  C2  1  0.18179305  0.02677734  0.12125910  1
  C  C3  1  0.19128112  0.20318175  0.35467982  1
  C  C4  1  0.24542522  0.18687687  0.33640454  1
  C  C5  1  0.13780096  0.30737564  0.39235625  1
  C  C6  1  0.13734711  0.40083591  0.42489005  1
  O  O7  1  0.15045350  0.47886910  0.21635548  1
  C  C8  1  0.01890397  0.10036176  0.14361133  1
  C  C9  1  0.22845761  0.38692886  0.27253118  1
  C  C10  1  0.07457295  0.15976248  0.25571263  1
  H  H11  1  0.21526056  0.30787689  0.43026565  1
  H  H12  1  0.19203203  0.35734997  0.28167104  1
  C  C13  1  0.04999502  0.13201054  0.20495723  1
  C  C14  1  0.10784350  0.19227137  0.31519221  1
  C  C15  1  0.15667912  0.16025652  0.31002429  1
  C  C16  1  0.18465042  0.27339027  0.40220277  1
  C  C17  1  0.23585832  0.46766756  0.23805294  1
  C  C18  1  0.14610401  0.47541006  0.43903737  1
  C  C19  1  0.09825848  0.27219679  0.35237344  1
  H  H20  1  0.16709013  0.10864376  0.26987375  1
  C  C21  1  0.19000376  0.13696747  0.03025166  1
  H  H22  1  0.15102034  0.00615056  0.08540329  1
  C  C23  1  0.03157188  0.01594740  0.11013041  1
  C  C24  1  0.24533188  0.14249043  0.14842428  1
  C  C25  1  0.01216337  0.16870882  0.01093242  1
  O  O26  1  0.21875201  0.38594381  0.05240049  1
  H  H27  1  0.21032082  0.42324356  0.09771591  1
  C  C28  1  0.03791908  0.00254725  0.02395277  1
  O  O29  1  0.20712974  0.20583877  0.01156236  1
  C  C30  1  0.07265164  0.27084987  0.78231510  1
  Zn  Zn31  1  0.16410037  0.36243138  0.68521087  1
  H  H32  1  0.08642412  0.45309682  0.91901262  1
  O  O33  1  0.04252100  0.49672349  0.73918053  1
  C  C34  1  0.05470713  0.08551329  0.55028072  1
  C  C35  1  0.07586854  0.11322078  0.80368664  1
  O  O36  1  0.09331641  0.05339510  0.83285983  1
  O  O37  1  0.11307876  0.43572497  0.77046744  1
  H  H38  1  0.05013717  0.09321098  0.92526628  1
  C  C39  1  0.08802415  0.22874283  0.55858496  1
  H  H40  1  0.10198560  0.27350533  0.82230613  1
  C  C41  1  0.05329612  0.18867350  0.76819549  1
  C  C42  1  0.04753316  0.47217001  0.91293930  1
  H  H43  1  0.21512862  0.32842281  0.89802544  1
  C  C44  1  0.04681386  0.17469083  0.55726146  1
  O  O45  1  0.23035456  0.31467262  0.55963845  1
  C  C46  1  0.22394355  0.36448008  0.60862066  1
  C  C47  1  0.01696039  0.24955666  0.97189786  1
  C  C48  1  0.07949460  0.32594287  0.56432085  1
  C  C49  1  0.06972184  0.43093382  0.75521108  1
  C  C50  1  0.04950957  0.34188426  0.75059336  1
  C  C51  1  0.01041463  0.41207886  0.92413983  1
  C  C52  1  0.01009515  0.02481259  0.54857186  1
  H  H53  1  0.20482608  0.46821831  0.74514344  1
  C  C54  1  0.14288030  0.10629872  0.54909281  1
  O  O55  1  0.20535677  0.29175861  0.76713975  1
  O  O56  1  0.23100943  0.04699206  0.52929046  1
  H  H57  1  0.00823478  0.19962746  0.55394130  1
  O  O58  1  0.11614823  0.37059574  0.57874152  1
  C  C59  1  0.10008741  0.05139366  0.55250202  1
  O  O60  1  0.03808999  0.35790305  0.56098396  1
  C  C61  1  0.03190654  0.08783403  0.98073197  1
  C  C62  1  0.13421809  0.19631127  0.55448707  1
  H  H63  1  0.16488722  0.24160664  0.54746973  1
  C  C64  1  0.01545845  0.32118415  0.94522430  1
  C  C65  1  0.19067439  0.06830518  0.54040533  1
  C  C66  1  0.24054020  0.47735298  0.71257190  1
  C  C67  1  0.00700069  0.33167338  0.70884571  1
  C  C68  1  0.00915391  0.17775308  0.72443183  1
  O  O69  1  0.15434509  0.10677938  0.99997345  1
  O  O70  1  0.15639905  0.83902370  0.23315259  1
  O  O71  1  0.12752794  0.88744548  0.12650664  1
  C  C72  1  0.15286117  0.56644125  0.45924226  1
  C  C73  1  0.15679706  0.89195054  0.17866170  1
  C  C74  1  0.18913682  0.97043331  0.18193613  1
  C  C75  1  0.17967493  0.61594828  0.40913807  1
  O  O76  1  0.24707054  0.80645979  0.40626918  1
  C  C77  1  0.03195261  0.62494735  0.25848004  1
  C  C78  1  0.22724132  0.74559122  0.38118986  1
  Zn  Zn79  1  0.18389828  0.71177589  0.22174373  1
  O  O80  1  0.11195376  0.66283227  0.25623110  1
  Zn  Zn81  1  0.11423653  0.75133498  0.04818439  1
  C  C82  1  0.03507967  0.60701038  0.33392484  1
  O  O83  1  0.19611494  0.58318335  0.17533335  1
  H  H84  1  0.06996178  0.60925934  0.36509753  1
  C  C85  1  0.07615351  0.65615921  0.21472494  1
  C  C86  1  0.18838823  0.70157103  0.43180049  1
  H  H87  1  0.19858204  0.59436929  0.35851676  1
  O  O88  1  0.23280136  0.71214991  0.31791367  1
  H  H89  1  0.21571174  0.91352703  0.28916754  1
  O  O90  1  0.07573774  0.67418805  0.14646315  1
  H  H91  1  0.05229092  0.96700975  0.14391285  1
  O  O92  1  0.22954627  0.73299618  0.12293520  1
  C  C93  1  0.22067428  0.96715936  0.24410828  1
  O  O94  1  0.03233820  0.53128948  0.48194619  1
  C  C95  1  0.16841300  0.73808528  0.49441655  1
  C  C96  1  0.18965951  0.51172030  0.20854425  1
  H  H97  1  0.24608230  0.66700937  0.00623014  1
  C  C98  1  0.14614063  0.72430714  0.93992440  1
  O  O99  1  0.11965748  0.79131141  0.63245533  1
  Zn  Zn100  1  0.14433128  0.80342517  0.83059891  1
  O  O101  1  0.06352727  0.68920831  0.85018138  1
  C  C102  1  0.21113030  0.87010913  0.88055290  1
  C  C103  1  0.12801867  0.81854392  0.94571551  1
  C  C104  1  0.11457016  0.71825789  0.60910623  1
  O  O105  1  0.18348024  0.64695201  0.74800857  1
  C  C106  1  0.03647086  0.55701562  0.89518188  1
  H  H107  1  0.15046341  0.95758720  0.92989699  1
  C  C108  1  0.12874591  0.59691211  0.52583521  1
  C  C109  1  0.13925949  0.68494048  0.54182137  1
  H  H110  1  0.10885265  0.55534699  0.56438475  1
  O  O111  1  0.11322669  0.63265163  0.93068606  1
  C  C112  1  0.22321125  0.78078547  0.86039213  1
  C  C113  1  0.16218999  0.88955569  0.91979364  1
  C  C114  1  0.19001900  0.70617961  0.88470203  1
  C  C115  1  0.17541590  0.65940804  0.81113030  1
  C  C116  1  0.07290660  0.62958048  0.89222186  1
  O  O117  1  0.08883632  0.66242966  0.64597946  1
  Zn  Zn118  1  0.04473356  0.64211428  0.73849220  1
  O  O119  1  0.01562055  0.94782877  0.56269565  1
  O  O120  1  0.24254056  0.97548886  0.77752743  1
  C  C121  1  0.07753673  0.85827901  0.97603989  1
  Zn  Zn122  1  0.21183933  0.57108032  0.88731869  1
  C  C123  1  0.23200307  0.93871403  0.83089102  1
  H  H124  1  0.17552041  0.80470003  0.50641596  1
  H  H125  1  0.10682649  0.98323791  0.55019960  1
  C  C126  1  0.05944894  0.92598062  0.99877028  1
  Zn  Zn127  1  0.44178843  0.36069241  0.28636601  1
  O  O128  1  0.44055818  0.15777142  0.34000488  1
  H  H129  1  0.35280771  0.34695212  0.28629370  1
  H  H130  1  0.37219615  0.17639179  0.15042895  1
  O  O131  1  0.34902496  0.29043537  0.41047392  1
  C  C132  1  0.32311099  0.07208455  0.06344447  1
  C  C133  1  0.42163005  0.16627207  0.28079853  1
  O  O134  1  0.39548099  0.39442661  0.38222693  1
  C  C135  1  0.37754867  0.10998148  0.16999106  1
  C  C136  1  0.31822503  0.38113922  0.27314456  1
  C  C137  1  0.40211932  0.08931016  0.23691088  1
  C  C138  1  0.32072757  0.46408030  0.24682742  1
  C  C139  1  0.25328030  0.44263161  0.01827534  1
  C  C140  1  0.37677305  0.34586033  0.43088342  1
  C  C141  1  0.27164563  0.33884645  0.28524347  1
  Zn  Zn142  1  0.30600809  0.11648377  0.32051672  1
  O  O143  1  0.41617926  0.23995734  0.24717788  1
  O  O144  1  0.30699662  0.01136544  0.02158987  1
  H  H145  1  0.45995373  0.30551021  0.45169913  1
  C  C146  1  0.27189529  0.24913676  0.30925677  1
  H  H147  1  0.26070631  0.20471268  0.12893496  1
  O  O148  1  0.32179251  0.14672394  0.04459188  1
  C  C149  1  0.35261963  0.04697946  0.12927998  1
  C  C150  1  0.26250564  0.11005294  0.21591370  1
  H  H151  1  0.42791220  0.45706039  0.48493182  1
  O  O152  1  0.40824840  0.47738850  0.24797218  1
  C  C153  1  0.25358647  0.03572040  0.25489238  1
  C  C154  1  0.49623390  0.30683996  0.47696626  1
  C  C155  1  0.40177942  0.00619865  0.26501630  1
  O  O156  1  0.47341172  0.34510982  0.03526923  1
  H  H157  1  0.32520388  0.39553599  0.73127618  1
  Zn  Zn158  1  0.32733873  0.17371949  0.67132788  1
  C  C159  1  0.34454583  0.45544211  0.84650668  1
  C  C160  1  0.38693096  0.30855391  0.64778889  1
  O  O161  1  0.34024106  0.22786698  0.56079550  1
  C  C162  1  0.36785849  0.28944011  0.56950957  1
  H  H163  1  0.43033509  0.38796055  0.72402474  1
  Zn  Zn164  1  0.32737062  0.32668243  0.90451715  1
  C  C165  1  0.37863281  0.25579232  0.71517291  1
  C  C166  1  0.31769000  0.38901801  0.79315042  1
  O  O167  1  0.26479822  0.19839367  0.76173634  1
  C  C168  1  0.41983520  0.37410967  0.66465615  1
  O  O169  1  0.38909799  0.24974229  0.78012424  1
  H  H170  1  0.30098850  0.43360066  0.54546209  1
  C  C171  1  0.27663700  0.41217698  0.94946885  1
  C  C172  1  0.29365574  0.46126176  0.60178218  1
  C  C173  1  0.43636342  0.42863010  0.60559523  1
  C  C174  1  0.27702076  0.34082443  0.81393290  1
  C  C175  1  0.31899892  0.45980695  0.92637754  1
  C  C176  1  0.25084650  0.27195117  0.77239180  1
  C  C177  1  0.41813363  0.41599359  0.53202674  1
  C  C178  1  0.38720620  0.35044772  0.51499237  1
  C  C179  1  0.25273836  0.35760362  0.88846111  1
  O  O180  1  0.46297262  0.08953745  0.53509497  1
  C  C181  1  0.25233134  0.43397589  0.64390844  1
  C  C182  1  0.48277208  0.15641067  0.52763501  1
  H  H183  1  0.33461102  0.91581452  0.12355309  1
  H  H184  1  0.44988066  0.90324133  0.40280517  1
  C  C185  1  0.30357402  0.74984856  0.05209091  1
  C  C186  1  0.35343097  0.96449198  0.15874768  1
  C  C187  1  0.39885932  0.69378921  0.41217879  1
  C  C188  1  0.38249604  0.84867214  0.25061779  1
  O  O189  1  0.43123155  0.87556003  0.01880211  1
  C  C190  1  0.41118810  0.67132826  0.48633961  1
  H  H191  1  0.37158049  0.65286469  0.38231723  1
  Zn  Zn192  1  0.36393089  0.71279789  0.22164723  1
  C  C193  1  0.44042743  0.83642381  0.42354994  1
  O  O194  1  0.46086402  0.68013917  0.10465089  1
  C  C195  1  0.41541846  0.77296847  0.38103868  1
  C  C196  1  0.37847407  0.93975270  0.22496949  1
  O  O197  1  0.29086378  0.80298259  0.17147833  1
  H  H198  1  0.28220220  0.56934795  0.19106160  1
  O  O199  1  0.36451155  0.58123911  0.19958911  1
  C  C200  1  0.34751732  0.78940488  0.04548916  1
  H  H201  1  0.36117224  0.84079752  0.08469726  1
  C  C202  1  0.27154726  0.76187896  0.12245772  1
  C  C203  1  0.39792796  0.79292652  0.30238806  1
  H  H204  1  0.47472652  0.55681679  0.25542585  1
  C  C205  1  0.47785252  0.68496706  0.16401257  1
  C  C206  1  0.45646305  0.80595614  0.49429824  1
  C  C207  1  0.27898822  0.50961624  0.22419208  1
  O  O208  1  0.25746503  0.51251921  0.04323699  1
  C  C209  1  0.36881479  0.51143215  0.23233122  1
  C  C210  1  0.49948924  0.69274213  0.24120374  1
  C  C211  1  0.49308770  0.61130574  0.27864620  1
  H  H212  1  0.42517119  0.99182930  0.31331411  1
  C  C213  1  0.29233973  0.63528588  0.86553511  1
  C  C214  1  0.37346320  0.77485095  0.97581634  1
  C  C215  1  0.44456557  0.72488285  0.52663624  1
  O  O216  1  0.44693819  0.82778206  0.89533615  1
  H  H217  1  0.25848542  0.76793518  0.83151195  1
  H  H218  1  0.45716637  0.71089930  0.58362586  1
  C  C219  1  0.38253793  0.60869802  0.53033365  1
  C  C220  1  0.27524529  0.53571091  0.74169355  1
  C  C221  1  0.31605293  0.55979787  0.69942841  1
  C  C222  1  0.32104672  0.53313292  0.62457572  1
  C  C223  1  0.27106009  0.58088225  0.81556080  1
  C  C224  1  0.30849505  0.68609155  0.93066967  1
  Zn  Zn225  1  0.26277049  0.95980234  0.93645086  1
  C  C226  1  0.28204737  0.69901623  0.99736161  1
  H  H227  1  0.37239524  0.71653720  0.86305256  1
  H  H228  1  0.34341022  0.60600318  0.71815674  1
  C  C229  1  0.41699096  0.82829933  0.97057017  1
  C  C230  1  0.35423530  0.72599333  0.91591404  1
  C  C231  1  0.35484550  0.57353383  0.57413071  1
  O  O232  1  0.40963814  0.57102835  0.80773183  1
  H  H233  1  0.47554987  0.60224344  0.75230858  1
  C  C234  1  0.49040050  0.83945334  0.90624518  1
  C  C235  1  0.48349422  0.85528841  0.55298155  1
  C  C236  1  0.49917386  0.55891761  0.62557391  1
  C  C237  1  0.47081707  0.50119071  0.61467733  1
  H  H238  1  0.33288418  0.51122307  0.96499428  1
  C  C239  1  0.38129079  0.51867949  0.82423857  1
  C  C240  1  0.68511977  0.37333876  0.10134925  1
  C  C241  1  0.56569546  0.19356345  0.10429097  1
  C  C242  1  0.60677739  0.16815398  0.13879892  1
  O  O243  1  0.62974941  0.08652709  0.47742068  1
  C  C244  1  0.64629382  0.22515759  0.13841410  1
  C  C245  1  0.64325952  0.31080513  0.10685517  1
  H  H246  1  0.68282128  0.19968554  0.16607506  1
  O  O247  1  0.61493262  0.07473775  0.17468519  1
  H  H248  1  0.62605734  0.41935696  0.36725820  1
  H  H249  1  0.54065001  0.48983443  0.17168087  1
  C  C250  1  0.61788983  0.46002607  0.31949538  1
  C  C251  1  0.73492704  0.11655623  0.06676404  1
  O  O252  1  0.56890247  0.29224222  0.29732444  1
  C  C253  1  0.58551808  0.02129854  0.15662156  1
  C  C254  1  0.71511301  0.43077465  0.09396554  1
  O  O255  1  0.54841754  0.12640984  0.33715535  1
  H  H256  1  0.59478306  0.39706911  0.04045383  1
  O  O257  1  0.72621837  0.24085222  0.38622119  1
  H  H258  1  0.53461986  0.14965389  0.10762006  1
  H  H259  1  0.55581095  0.18829964  0.32605242  1
  C  C260  1  0.55242872  0.35876609  0.26853212  1
  C  C261  1  0.51742924  0.46404451  0.42824721  1
  C  C262  1  0.72268423  0.06154137  0.20228750  1
  H  H263  1  0.68519607  0.03927941  0.19334255  1
  H  H264  1  0.51331641  0.11652131  0.33289930  1
  Zn  Zn265  1  0.59947919  0.01617900  0.38721022  1
  C  C266  1  0.58139612  0.44227097  0.26586850  1
  C  C267  1  0.71109009  0.01837967  0.33408366  1
  C  C268  1  0.52366126  0.38538490  0.47388477  1
  C  C269  1  0.59956222  0.33631699  0.06905293  1
  O  O270  1  0.51245737  0.35550787  0.23358103  1
  C  C271  1  0.74857426  0.49926624  0.07976228  1
  C  C272  1  0.57067983  0.49992405  0.21197193  1
  O  O273  1  0.66685399  0.00921408  0.32191097  1
  C  C274  1  0.55872048  0.27913361  0.07276400  1
  O  O275  1  0.72640170  0.00595208  0.39989007  1
  C  C276  1  0.51200404  0.31676001  0.04970918  1
  H  H277  1  0.74520892  0.34498934  0.27402095  1
  C  C278  1  0.74224023  0.05342655  0.27330377  1
  O  O279  1  0.68455078  0.49955420  0.43754548  1
  C  C280  1  0.63418279  0.32531269  0.58573291  1
  C  C281  1  0.62696606  0.03343596  0.67219597  1
  H  H282  1  0.69767714  0.30210475  0.75735739  1
  O  O283  1  0.69025158  0.10105006  0.55839798  1
  O  O284  1  0.61456488  0.47685834  0.67999962  1
  C  C285  1  0.55960897  0.24085771  0.55386331  1
  C  C286  1  0.67457046  0.33694698  0.61142767  1
  H  H287  1  0.58322794  0.48607859  0.80676340  1
  C  C288  1  0.58543240  0.31843267  0.54949603  1
  H  H289  1  0.66299937  0.06587686  0.68658079  1
  H  H290  1  0.57519458  0.18815491  0.58376919  1
  C  C291  1  0.71949811  0.36756991  0.65010453  1
  C  C292  1  0.72478502  0.33726357  0.72542929  1
  C  C293  1  0.64897286  0.07334122  0.53920947  1
  Zn  Zn294  1  0.68417073  0.08324575  0.97988782  1
  C  C295  1  0.61602593  0.03288918  0.59721300  1
  O  O296  1  0.74250431  0.30718244  0.87501531  1
  O  O297  1  0.63265029  0.03468723  0.84442753  1
  C  C298  1  0.51255201  0.23519471  0.51877904  1
  C  C299  1  0.56993056  0.39021338  0.50832447  1
  H  H300  1  0.59253730  0.45010724  0.50376318  1
  C  C301  1  0.53660670  0.68504405  0.38275262  1
  C  C302  1  0.59076474  0.69608278  0.10118865  1
  H  H303  1  0.66024366  0.64999314  0.25032969  1
  H  H304  1  0.50087581  0.77241146  0.04354345  1
  C  C305  1  0.73177465  0.84941746  0.12356286  1
  C  C306  1  0.56799396  0.84252958  0.37259741  1
  C  C307  1  0.51444100  0.61318433  0.35000541  1
  C  C308  1  0.62022582  0.82535205  0.03327481  1
  C  C309  1  0.58450538  0.76220458  0.04717514  1
  C  C310  1  0.59829969  0.64085988  0.14870356  1
  C  C311  1  0.51752870  0.52998516  0.39165084  1
  C  C312  1  0.53904522  0.76228468  0.34311486  1
  H  H313  1  0.65328621  0.82298087  0.06675869  1
  C  C314  1  0.69878688  0.96168039  0.03311229  1
  O  O315  1  0.58967846  0.84833605  0.43080570  1
  C  C316  1  0.74193434  0.55919817  0.02311924  1
  H  H317  1  0.69616018  0.81959455  0.13650580  1
  O  O318  1  0.56760865  0.90949819  0.33156350  1
  H  H319  1  0.73604205  0.65539456  0.49224734  1
  O  O320  1  0.71009975  0.60830900  0.37035450  1
  H  H321  1  0.55134733  0.68540962  0.43950890  1
  H  H322  1  0.53103926  0.82154818  0.23167540  1
  O  O323  1  0.73421726  0.70946500  0.23377240  1
  C  C324  1  0.64614973  0.53308809  0.31705754  1
  C  C325  1  0.53505151  0.78544597  0.00990110  1
  C  C326  1  0.52209082  0.76871511  0.27153781  1
  C  C327  1  0.64121804  0.58856498  0.25740858  1
  C  C328  1  0.60338884  0.57103006  0.20668404  1
  C  C329  1  0.68492917  0.54031543  0.38003533  1
  O  O330  1  0.55838456  0.96545264  0.14221468  1
  C  C331  1  0.73918060  0.91733075  0.07361199  1
  O  O332  1  0.54708886  0.52172049  0.00600220  1
  C  C333  1  0.65222933  0.95680610  0.00635743  1
  C  C334  1  0.60493680  0.76760132  0.72319495  1
  H  H335  1  0.63288350  0.81461723  0.73390365  1
  C  C336  1  0.60505133  0.72630931  0.65083171  1
  C  C337  1  0.64736205  0.52686631  0.69956053  1
  C  C338  1  0.68492015  0.61172668  0.80799561  1
  H  H339  1  0.56721706  0.98613978  0.51096902  1
  C  C340  1  0.57105486  0.66098302  0.62402912  1
  O  O341  1  0.57462181  0.93214308  0.84638797  1
  C  C342  1  0.53472016  0.68517319  0.78585997  1
  O  O343  1  0.68041462  0.55493683  0.65884941  1
  C  C344  1  0.64469775  0.63285811  0.92473042  1
  C  C345  1  0.64373415  0.73907770  0.59554133  1
  C  C346  1  0.64767844  0.55764622  0.78565789  1
  Zn  Zn347  1  0.53968794  0.74255460  0.89005781  1
  C  C348  1  0.51097293  0.63058739  0.73744804  1
  C  C349  1  0.50687532  0.89492493  0.59997238  1
  H  H350  1  0.53375459  0.91087253  0.74595650  1
  C  C351  1  0.57295921  0.74401737  0.78287621  1
  C  C352  1  0.55630947  0.95033933  0.70586592  1
  C  C353  1  0.68434386  0.64992416  0.87912320  1
  C  C354  1  0.60569167  0.57667370  0.90082830  1
  H  H355  1  0.57265726  0.64163315  0.56468114  1
  H  H356  1  0.71437875  0.62410888  0.76813184  1
  C  C357  1  0.53113286  0.62526105  0.66404674  1
  C  C358  1  0.60844979  0.53472810  0.82657203  1
  C  C359  1  0.68168752  0.75589652  0.56442517  1
  C  C360  1  0.52979827  0.85337461  0.95272137  1
  C  C361  1  0.54679970  0.95145546  0.62655834  1
  C  C362  1  0.72944365  0.78455504  0.53416486  1
  C  C363  1  0.56869900  0.91771248  0.93870497  1
  O  O364  1  0.74522412  0.82652294  0.73438258  1
  H  H365  1  0.73000235  0.92269883  0.57157867  1
  C  C366  1  0.72856097  0.70427963  0.90098958  1
  C  C367  1  0.74995656  0.86581153  0.54508731  1
  C  C368  1  0.59678615  0.99447041  0.72575552  1
  C  C369  1  0.61284381  0.89660507  0.98724720  1
  H  H370  1  0.55746504  0.98846251  0.94482687  1
  C  C371  1  0.57271193  0.54772288  0.95973266  1
  C  C372  1  0.60432781  0.98606114  0.81191103  1
  H  H373  1  0.64035405  0.66205562  0.98119942  1
  H  H374  1  0.71076725  0.55530712  0.98174837  1
  C  C375  1  0.57381764  0.99156772  0.57207994  1
  C  C376  1  0.76889094  0.24756099  0.39718971  1
  C  C377  1  0.79214756  0.07936479  0.28658850  1
  C  C378  1  0.89295358  0.12001574  0.30260164  1
  C  C379  1  0.94100538  0.34733645  0.34032603  1
  C  C380  1  0.85274704  0.30088680  0.36478971  1
  H  H381  1  0.79801731  0.28897346  0.05554513  1
  C  C382  1  0.80071993  0.11573359  0.16150006  1
  Zn  Zn383  1  0.97014611  0.05947118  0.05574050  1
  H  H384  1  0.86353896  0.26666305  0.41466614  1
  C  C385  1  0.87226914  0.38792302  0.25740622  1
  C  C386  1  0.80311796  0.45106220  0.18606908  1
  C  C387  1  0.82315233  0.11130027  0.22966823  1
  O  O388  1  0.87299266  0.41858581  0.03276145  1
  C  C389  1  0.89349753  0.34783500  0.04421733  1
  H  H390  1  0.82300272  0.13794028  0.11227872  1
  H  H391  1  0.80899633  0.07456986  0.34178920  1
  C  C392  1  0.82016550  0.39169413  0.24285514  1
  O  O393  1  0.96879876  0.38617724  0.30252312  1
  C  C394  1  0.88674369  0.34424170  0.31933653  1
  O  O395  1  0.93308388  0.34782049  0.07524924  1
  O  O396  1  0.95501512  0.30999636  0.40307225  1
  O  O397  1  0.87606237  0.14257861  0.24451359  1
  C  C398  1  0.82367911  0.24947807  0.01676982  1
  O  O399  1  0.78862182  0.20060366  0.44932462  1
  H  H400  1  0.89945015  0.42255066  0.22426369  1
  O  O401  1  0.88006180  0.02499735  0.03421259  1
  C  C402  1  0.80340590  0.29621490  0.34267481  1
  O  O403  1  0.90756542  0.09730847  0.35936078  1
  C  C404  1  0.78466498  0.34143705  0.28474029  1
  C  C405  1  0.75027757  0.09786998  0.14520917  1
  C  C406  1  0.99916541  0.17203434  0.09350977  1
  H  H407  1  0.99632864  0.24064860  0.11843176  1
  H  H408  1  0.79008162  0.00382810  0.01668050  1
  O  O409  1  0.95547017  0.49834209  0.47151977  1
  C  C410  1  0.75416451  0.14201118  0.00008299  1
  Zn  Zn411  1  0.75141265  0.09234526  0.48565158  1
  C  C412  1  0.77891807  0.33174636  0.84305110  1
  C  C413  1  0.88257973  0.15824419  0.91401393  1
  H  H414  1  0.94041731  0.24696670  0.93801622  1
  C  C415  1  0.83599846  0.13154323  0.93206503  1
  O  O416  1  0.78802429  0.02113180  0.57000651  1
  O  O417  1  0.93513335  0.32354333  0.61221565  1
  H  H418  1  0.98656525  0.38806159  0.68566824  1
  C  C419  1  0.84053844  0.49129618  0.62729781  1
  C  C420  1  0.95922213  0.43620798  0.91538954  1
  O  O421  1  0.82145070  0.33225318  0.87098545  1
  H  H422  1  0.83919506  0.42827414  0.75987052  1
  O  O423  1  0.89465125  0.04167303  0.82780177  1
  H  H424  1  0.99544064  0.11392214  0.70791704  1
  O  O425  1  0.95534893  0.13002146  0.85174526  1
  O  O426  1  0.91719363  0.19060748  0.63628697  1
  C  C427  1  0.94291305  0.25407309  0.64830683  1
  C  C428  1  0.91386706  0.10815716  0.85913682  1
  H  H429  1  0.75245961  0.43412336  0.55418444  1
  H  H430  1  0.93167553  0.38505829  0.92444044  1
  H  H431  1  0.82063341  0.07573809  0.90178330  1
  C  C432  1  0.80464649  0.17623484  0.97912935  1
  C  C433  1  0.98771696  0.24999388  0.69544411  1
  Zn  Zn434  1  0.91496696  0.04396048  0.64882959  1
  C  C435  1  0.90228916  0.22930299  0.95015815  1
  C  C436  1  0.80416027  0.41123668  0.72999876  1
  C  C437  1  0.79672824  0.43623443  0.65625491  1
  O  O438  1  0.97033913  0.05938462  0.54427674  1
  C  C439  1  0.75782819  0.41309383  0.61068304  1
  Zn  Zn440  1  0.85755766  0.44510165  0.91124525  1
  C  C441  1  0.76845562  0.35851940  0.76188270  1
  C  C442  1  0.86957603  0.27260756  0.99699205  1
  Zn  Zn443  1  0.96667686  0.36323571  0.51395701  1
  Zn  Zn444  1  0.77516466  0.61365155  0.31368576  1
  O  O445  1  0.88019416  0.67478880  0.45010902  1
  C  C446  1  0.81774656  0.64590971  0.05905136  1
  H  H447  1  0.85375884  0.82551670  0.17877090  1
  C  C448  1  0.82469629  0.58718468  0.11793888  1
  C  C449  1  0.94322420  0.59622517  0.25713104  1
  C  C450  1  0.77098593  0.75163445  0.21812146  1
  C  C451  1  0.82100073  0.85446967  0.14822010  1
  C  C452  1  0.89922701  0.59311484  0.21227555  1
  O  O453  1  0.91252855  0.92104086  0.09227313  1
  C  C454  1  0.82706913  0.91949873  0.09362884  1
  C  C455  1  0.99216441  0.57530768  0.36882809  1
  H  H456  1  0.98551810  0.63432252  0.16294328  1
  O  O457  1  0.81981498  0.60014355  0.40608873  1
  C  C458  1  0.86410202  0.59240566  0.17065406  1
  H  H459  1  0.83948983  0.70408451  0.04954321  1
  C  C460  1  0.98641476  0.61924176  0.22256609  1
  C  C461  1  0.94749707  0.56919165  0.33251902  1
  C  C462  1  0.87566051  0.95953501  0.07357811  1
  C  C463  1  0.77366139  0.63393430  0.01763586  1
  H  H464  1  0.91486043  0.53898966  0.36150737  1
  C  C465  1  0.78716393  0.95187134  0.05898136  1
  C  C466  1  0.83525786  0.66442771  0.44104312  1
  O  O467  1  0.80854973  0.72277159  0.24898625  1
  C  C468  1  0.77436383  0.82328162  0.15945010  1
  H  H469  1  0.86255302  0.82017940  0.47464917  1
  C  C470  1  0.99558480  0.53650510  0.44571697  1
  C  C471  1  0.80214579  0.72942475  0.47892142  1
  C  C472  1  0.75367724  0.71640669  0.49807472  1
  C  C473  1  0.82443446  0.80946400  0.49066406  1
  C  C474  1  0.79232770  0.51161354  0.13115449  1
  C  C475  1  0.98749433  0.57903475  0.88325482  1
  C  C476  1  0.92703578  0.98295031  0.75881725  1
  C  C477  1  0.77923890  0.78864311  0.75541835  1
  C  C478  1  0.83360337  0.80213820  0.76506105  1
  O  O479  1  0.87758768  0.62194974  0.86903900  1
  H  H480  1  0.86725777  0.66404676  0.76805635  1
  C  C481  1  0.92497331  0.84299245  0.67401180  1
  C  C482  1  0.89802293  0.91633853  0.71256953  1
  C  C483  1  0.85067542  0.89585778  0.75052325  1
  C  C484  1  0.79879290  0.87532232  0.52711217  1
  H  H485  1  0.98065728  0.64604373  0.86475068  1
  O  O486  1  0.94472102  0.66719977  0.60265598  1
  H  H487  1  0.96148920  0.85774389  0.64906793  1
  Zn  Zn488  1  0.91142402  0.57790429  0.53594198  1
  C  C489  1  0.94233431  0.68237132  0.67155433  1
  Zn  Zn490  1  0.78441508  0.79199143  0.87328985  1
  H  H491  1  0.83216827  0.94192923  0.78646496  1
  C  C492  1  0.87256377  0.73423025  0.75028447  1
  O  O493  1  0.96979235  0.64261177  0.71859066  1
  C  C494  1  0.90992152  0.75266060  0.69261521  1
  Zn  Zn495  1  0.84744885  0.81295641  0.65580560  1
  C  C496  1  0.89595236  0.55678721  0.88945274  1
  O  O497  1  0.96909664  0.98366066  0.76799974  1
  C  C498  1  0.81915893  0.96378669  0.54736540  1
  C  C499  1  0.94858189  0.52342917  0.89597282  1
  C  C500  1  0.76497034  0.69158512  0.95133536  1
  O  O501  1  0.86300792  0.97698255  0.54304687  1
  O  O502  1  0.84851988  0.50258361  0.55775109  1
  O  O503  1  0.87168784  0.51830307  0.66869455  1
