# generated using pymatgen
data_CuH4C7N4
_symmetry_space_group_name_H-M   'P 1'
_cell_length_a   15.25696965
_cell_length_b   16.92276479
_cell_length_c   22.76435698
_cell_angle_alpha   90.00000000
_cell_angle_beta   90.00000000
_cell_angle_gamma   90.00000000
_symmetry_Int_Tables_number   1
_chemical_formula_structural   CuH4C7N4
_chemical_formula_sum   'Cu32 H128 C224 N128'
_cell_volume   5877.53180473
_cell_formula_units_Z   32
loop_
 _symmetry_equiv_pos_site_id
 _symmetry_equiv_pos_as_xyz
  1  'x, y, z'
loop_
 _atom_site_type_symbol
 _atom_site_label
 _atom_site_symmetry_multiplicity
 _atom_site_fract_x
 _atom_site_fract_y
 _atom_site_fract_z
 _atom_site_occupancy
  N  N0  1  0.17367254  0.05631066  0.03259243  1
  C  C1  1  0.15460356  0.39592392  0.14371162  1
  N  N2  1  0.02669693  0.25926399  0.03405069  1
  H  H3  1  0.33535945  0.39886005  0.23549770  1
  N  N4  1  0.34811777  0.47293549  0.04170556  1
  H  H5  1  0.42152205  0.06392789  0.08879769  1
  C  C6  1  0.45968042  0.22597596  0.20889097  1
  H  H7  1  0.37329001  0.05737276  0.22003678  1
  N  N8  1  0.38402544  0.17077734  0.12629968  1
  N  N9  1  0.08397007  0.36239494  0.16887520  1
  C  C10  1  0.20914811  0.45037575  0.17229917  1
  H  H11  1  0.29552590  0.17723418  0.04979607  1
  C  C12  1  0.41651353  0.46800602  0.08064609  1
  H  H13  1  0.02181281  0.33578413  0.24531621  1
  H  H14  1  0.24898888  0.27303905  0.20353135  1
  C  C15  1  0.03940438  0.15286996  0.23098689  1
  C  C16  1  0.39836655  0.22971090  0.16365305  1
  N  N17  1  0.08760557  0.05147761  0.14862990  1
  C  C18  1  0.06714581  0.09616061  0.18492320  1
  H  H19  1  0.14840694  0.38323283  0.09591195  1
  H  H20  1  0.35344186  0.28137853  0.15428197  1
  C  C21  1  0.33697050  0.16318442  0.01003138  1
  C  C22  1  0.43388902  0.10683873  0.12798937  1
  C  C23  1  0.07673999  0.37310060  0.22893171  1
  C  C24  1  0.19684796  0.46467295  0.23298369  1
  C  C25  1  0.29154771  0.27818508  0.24352588  1
  H  H26  1  0.25941285  0.48379926  0.14728874  1
  H  H27  1  0.08305182  0.43049126  0.00859928  1
  C  C28  1  0.48655623  0.39959251  0.07237741  1
  Cu  Cu29  1  0.01118224  0.00940380  0.08385122  1
  N  N30  1  0.11318578  0.00125552  0.02293103  1
  H  H31  1  0.46395214  0.27292247  0.24150919  1
  H  H32  1  0.42864571  0.26699455  0.00961632  1
  N  N33  1  0.48639983  0.46106376  0.28575056  1
  C  C34  1  0.35377560  0.04005167  0.26485446  1
  C  C35  1  0.45550967  0.40948976  0.32741333  1
  H  H36  1  0.14745304  0.27114521  0.33080096  1
  H  H37  1  0.21235250  0.04834189  0.26345218  1
  H  H38  1  0.43787782  0.26036843  0.37858552  1
  H  H39  1  0.09713958  0.14014406  0.46909219  1
  C  C40  1  0.25951684  0.02371421  0.35179140  1
  C  C41  1  0.39216656  0.34194436  0.31286239  1
  N  N42  1  0.28304996  0.21135189  0.27612358  1
  C  C43  1  0.33954638  0.34240460  0.26118081  1
  H  H44  1  0.30693473  0.38031597  0.46697734  1
  H  H45  1  0.31185073  0.15285508  0.34438765  1
  N  N46  1  0.10563426  0.25705810  0.48062735  1
  C  C47  1  0.11297172  0.18553177  0.26119347  1
  C  C48  1  0.09678544  0.24399883  0.30273325  1
  N  N49  1  0.42874769  0.02807421  0.29385032  1
  C  C50  1  0.39167331  0.26782104  0.34256971  1
  C  C51  1  0.33249094  0.20974835  0.32356004  1
  N  N52  1  0.09439930  0.01910329  0.36834949  1
  H  H53  1  0.12328505  0.42800739  0.30977617  1
  C  C54  1  0.26995870  0.03892846  0.29106893  1
  H  H55  1  0.48715274  0.01542533  0.36846696  1
  C  C56  1  0.05693858  0.19314461  0.46680759  1
  N  N57  1  0.18019647  0.00925808  0.44937883  1
  H  H58  1  0.01392260  0.29014583  0.36029798  1
  C  C59  1  0.17740122  0.01645047  0.38991562  1
  C  C60  1  0.04484592  0.01455092  0.41744617  1
  H  H61  1  0.18082082  0.16681302  0.25173307  1
  N  N62  1  0.48493384  0.42403586  0.38226072  1
  H  H63  1  0.47458071  0.37158614  0.49214493  1
  C  C64  1  0.05943121  0.32287106  0.48714163  1
  C  C65  1  0.33838588  0.00315422  0.38177808  1
  C  C66  1  0.41842110  0.01666755  0.35065688  1
  N  N67  1  0.09612893  0.00819160  0.46964138  1
  C  C68  1  0.13144763  0.42184325  0.26346741  1
  N  N69  1  0.01740901  0.26278755  0.32312350  1
  C  C70  1  0.20657426  0.44977501  0.72497587  1
  H  H71  1  0.13154843  0.30203771  0.64958041  1
  N  N72  1  0.27320887  0.43919496  0.54030202  1
  C  C73  1  0.45234939  0.45445243  0.56509141  1
  N  N74  1  0.46111133  0.48110733  0.74982630  1
  C  C75  1  0.29684316  0.48240510  0.58620935  1
  C  C76  1  0.47132380  0.11931256  0.53169980  1
  N  N77  1  0.20226899  0.37600110  0.70404065  1
  C  C78  1  0.06111726  0.41484870  0.66161118  1
  C  C79  1  0.12989614  0.35959613  0.67277375  1
  H  H80  1  0.42282935  0.10249938  0.62267898  1
  H  H81  1  0.00552247  0.40016599  0.63106805  1
  Cu  Cu82  1  0.45118836  0.40692230  0.69086612  1
  C  C83  1  0.38632378  0.49627348  0.59637595  1
  C  C84  1  0.46110032  0.13936883  0.59051717  1
  C  C85  1  0.07197506  0.49279984  0.68418766  1
  H  H86  1  0.45791619  0.06100649  0.50806672  1
  N  N87  1  0.47704713  0.19028853  0.71834222  1
  H  H88  1  0.30827180  0.22555813  0.74855822  1
  C  C89  1  0.33526452  0.41437269  0.50349829  1
  C  C90  1  0.42522770  0.41192999  0.51490237  1
  H  H91  1  0.10265217  0.36916971  0.50506213  1
  H  H92  1  0.47390575  0.12719773  0.87469140  1
  C  C93  1  0.22865479  0.12690706  0.78681931  1
  H  H94  1  0.21690332  0.24351518  0.92923467  1
  N  N95  1  0.37450571  0.42218542  0.89888592  1
  C  C96  1  0.32455639  0.31880496  0.85054241  1
  C  C97  1  0.36878938  0.07934120  0.92649717  1
  C  C98  1  0.39382820  0.42539661  0.83951296  1
  C  C99  1  0.23209062  0.04701329  0.98596368  1
  C  C100  1  0.27431646  0.19907359  0.78820302  1
  H  H101  1  0.15698645  0.10488372  0.92053615  1
  N  N102  1  0.19310181  0.09526457  0.83272376  1
  C  C103  1  0.18835440  0.13489092  0.88119054  1
  N  N104  1  0.36622946  0.36274204  0.80846844  1
  Cu  Cu105  1  0.03251038  0.09397163  0.86007124  1
  C  C106  1  0.42885316  0.13304980  0.91031379  1
  N  N107  1  0.15160647  0.44704755  0.86671719  1
  H  H108  1  0.15454227  0.36633633  0.80192062  1
  C  C109  1  0.22530400  0.20999242  0.88926266  1
  N  N110  1  0.32852022  0.35680469  0.90447045  1
  C  C111  1  0.12889856  0.37540388  0.84661357  1
  N  N112  1  0.45075361  0.19786519  0.94175532  1
  C  C113  1  0.27359410  0.24345594  0.84156755  1
  C  C114  1  0.02911486  0.26613230  0.97445800  1
  C  C115  1  0.40290779  0.21013002  0.99008186  1
  C  C116  1  0.08746418  0.31793691  0.88109068  1
  C  C117  1  0.06791847  0.33620849  0.93999143  1
  C  C118  1  0.12800765  0.46319758  0.92155887  1
  C  C119  1  0.08519337  0.41347547  0.96109826  1
  C  C120  1  0.31454043  0.09406321  0.97736476  1
  H  H121  1  0.36162715  0.02502718  0.90320538  1
  C  C122  1  0.44745132  0.48817980  0.80627726  1
  H  H123  1  0.34904526  0.00687499  0.79525955  1
  H  H124  1  0.22209307  0.07683390  0.75337488  1
  H  H125  1  0.07715721  0.25611185  0.86406397  1
  N  N126  1  0.00097402  0.20385358  0.94397712  1
  N  N127  1  0.02954924  0.00338768  0.80803365  1
  C  C128  1  0.00493812  0.04630700  0.76368236  1
  H  H129  1  0.26752433  0.44978676  0.75184860  1
  N  N130  1  0.42169166  0.52349019  0.12130591  1
  Cu  Cu131  1  0.46821501  0.71418926  0.17633930  1
  H  H132  1  0.49469052  0.91906416  0.03346282  1
  C  C133  1  0.22466567  0.56600040  0.01900666  1
  C  C134  1  0.45193444  0.93072739  0.07062119  1
  C  C135  1  0.14891069  0.69026668  0.19866041  1
  Cu  Cu136  1  0.31340725  0.65309201  0.16528050  1
  H  H137  1  0.36449590  0.82264199  0.03972062  1
  C  C138  1  0.06634477  0.58625257  0.01365990  1
  C  C139  1  0.36282719  0.94830972  0.07033231  1
  C  C140  1  0.16354713  0.71546186  0.10219353  1
  N  N141  1  0.31416427  0.95371361  0.11798086  1
  H  H142  1  0.04723516  0.75542589  0.05512195  1
  Cu  Cu143  1  0.03928905  0.94558466  0.19466633  1
  N  N144  1  0.19917283  0.69225106  0.15127681  1
  C  C145  1  0.07634237  0.73748079  0.09754716  1
  H  H146  1  0.20753490  0.70591294  0.06516283  1
  C  C147  1  0.02098160  0.74437682  0.14910719  1
  C  C148  1  0.34853503  0.93688579  0.16967022  1
  C  C149  1  0.06544440  0.72316120  0.20076497  1
  N  N150  1  0.33287768  0.58108351  0.10673679  1
  C  C151  1  0.30177445  0.54141325  0.05819015  1
  C  C152  1  0.49589077  0.92561006  0.12523656  1
  C  C153  1  0.44024782  0.92773108  0.17468168  1
  N  N154  1  0.16383932  0.92323708  0.19845755  1
  H  H155  1  0.32164579  0.96422769  0.03246276  1
  C  C156  1  0.13988117  0.55045356  0.04067841  1
  C  C157  1  0.47263062  0.69654800  0.01909974  1
  H  H158  1  0.29927703  0.93138955  0.20728654  1
  Cu  Cu159  1  0.19625919  0.98950217  0.13127855  1
  H  H160  1  0.47247442  0.91679974  0.21754133  1
  H  H161  1  0.18458835  0.66416347  0.23739128  1
  C  C162  1  0.17967296  0.88630283  0.24110734  1
  H  H163  1  0.02897834  0.72810201  0.24383063  1
  N  N164  1  0.49380676  0.72958019  0.07188914  1
  H  H165  1  0.12811595  0.51771340  0.08154813  1
  N  N166  1  0.29997812  0.58246265  0.24842775  1
  C  C167  1  0.45164754  0.81781099  0.45175578  1
  N  N168  1  0.43060416  0.73068531  0.25798937  1
  N  N169  1  0.39314543  0.61908539  0.48019210  1
  C  C170  1  0.39447954  0.68255415  0.30496328  1
  C  C171  1  0.04581928  0.80925584  0.35702478  1
  N  N172  1  0.16361609  0.85186125  0.29048930  1
  C  C173  1  0.07338839  0.85478085  0.30005958  1
  C  C174  1  0.09540179  0.82659451  0.40708561  1
  C  C175  1  0.01735707  0.52504124  0.42304047  1
  N  N176  1  0.15085410  0.56552226  0.47856104  1
  C  C177  1  0.24803688  0.52350977  0.26838235  1
  C  C178  1  0.33743967  0.61225922  0.29885067  1
  N  N179  1  0.30405270  0.57537200  0.34765992  1
  C  C180  1  0.08065721  0.78215798  0.45718681  1
  H  H181  1  0.15167425  0.54318669  0.39171987  1
  Cu  Cu182  1  0.46546229  0.58592508  0.42015824  1
  Cu  Cu183  1  0.28076875  0.59099301  0.47776344  1
  N  N184  1  0.40846494  0.71762876  0.35829593  1
  C  C185  1  0.45180354  0.78384356  0.34350891  1
  C  C186  1  0.48366676  0.83783519  0.39550143  1
  H  H187  1  0.14372827  0.87648589  0.40794389  1
  H  H188  1  0.40928553  0.76636614  0.45455971  1
  N  N189  1  0.46080657  0.79624431  0.28474240  1
  N  N190  1  0.01098359  0.88706583  0.26586874  1
  C  C191  1  0.10565969  0.54331683  0.42873301  1
  C  C192  1  0.47834744  0.87088790  0.49515366  1
  H  H193  1  0.33390396  0.97562976  0.42499910  1
  N  N194  1  0.24890954  0.51975185  0.32918526  1
  N  N195  1  0.01062407  0.73087124  0.46220609  1
  H  H196  1  0.11769532  0.78166888  0.49993234  1
  C  C197  1  0.28175874  0.67767595  0.65450919  1
  C  C198  1  0.42248696  0.65999998  0.52443353  1
  C  C199  1  0.10177591  0.56470133  0.52793099  1
  N  N200  1  0.35862627  0.65857795  0.62712008  1
  N  N201  1  0.25415491  0.92832359  0.67256826  1
  C  C202  1  0.14140796  0.50798929  0.72467791  1
  C  C203  1  0.01015020  0.55636939  0.52789981  1
  N  N204  1  0.10916148  0.94429245  0.63283117  1
  H  H205  1  0.14222720  0.58200553  0.56482625  1
  N  N206  1  0.01228767  0.63385516  0.68870304  1
  N  N207  1  0.26566281  0.71029548  0.56156945  1
  H  H208  1  0.13269959  0.72670990  0.72377031  1
  N  N209  1  0.23063869  0.71774171  0.61617520  1
  C  C210  1  0.26250386  0.66208687  0.71928884  1
  C  C211  1  0.18802302  0.69564322  0.74782475  1
  C  C212  1  0.34441231  0.67639372  0.57189664  1
  N  N213  1  0.49633788  0.68594915  0.54253671  1
  C  C214  1  0.17559166  0.93348976  0.65777508  1
  H  H215  1  0.35580120  0.76779906  0.72398308  1
  Cu  Cu216  1  0.08801853  0.97857398  0.55446767  1
  H  H217  1  0.45140739  0.87901814  0.54022506  1
  C  C218  1  0.24217207  0.90825993  0.72924868  1
  C  C219  1  0.00469998  0.55659821  0.67331131  1
  H  H220  1  0.39928919  0.53983590  0.63082652  1
  H  H221  1  0.24038468  0.50684834  0.61008513  1
  H  H222  1  0.38075110  0.59122780  0.73511906  1
  Cu  Cu223  1  0.22771802  0.85134264  0.83847997  1
  Cu  Cu224  1  0.14939916  0.98957897  0.84184956  1
  H  H225  1  0.44151443  0.66224232  0.90310830  1
  C  C226  1  0.38118165  0.94762517  0.79029812  1
  N  N227  1  0.09870833  0.85940597  0.88803098  1
  C  C228  1  0.40791355  0.73567188  0.97850982  1
  C  C229  1  0.33738634  0.74619870  0.88224067  1
  H  H230  1  0.25046829  0.88162517  0.96652265  1
  C  C231  1  0.08635579  0.89312585  0.94308017  1
  N  N232  1  0.49561056  0.85707221  0.82052950  1
  C  C233  1  0.39555349  0.70697931  0.91943589  1
  C  C234  1  0.13682362  0.96083413  0.97099373  1
  N  N235  1  0.28956652  0.80653399  0.90104863  1
  N  N236  1  0.18141169  0.89204011  0.76855594  1
  N  N237  1  0.02184249  0.85658337  0.97308194  1
  H  H238  1  0.15342077  0.71734383  0.92560829  1
  C  C239  1  0.30293945  0.60443012  0.81186400  1
  C  C240  1  0.29774680  0.83439288  0.95511780  1
  N  N241  1  0.48841803  0.55012475  0.83533750  1
  C  C242  1  0.17630650  0.67316723  0.80593083  1
  H  H243  1  0.11195432  0.68066762  0.82955931  1
  N  N244  1  0.03798913  0.80331431  0.88345638  1
  H  H245  1  0.31435792  0.72310086  0.83867327  1
  N  N246  1  0.22492558  0.62415128  0.83721389  1
  C  C247  1  0.15485026  0.66676665  0.95810625  1
  H  H248  1  0.34869280  0.57523582  0.83994793  1
  C  C249  1  0.45830187  0.80352184  0.78397989  1
  C  C250  1  0.35788136  0.80149681  0.99386156  1
  N  N251  1  0.07638662  0.64470335  0.97490379  1
  C  C252  1  0.45493794  0.92542116  0.82567978  1
  Cu  Cu253  1  0.05856061  0.90511411  0.76409687  1
  H  H254  1  0.29718729  0.64006518  0.95942910  1
  N  N255  1  0.20900605  0.99135228  0.94778742  1
  C  C256  1  0.33927370  0.89071428  0.75737513  1
  C  C257  1  0.23206833  0.62534583  0.97442109  1
  C  C258  1  0.37846752  0.81464718  0.75340355  1
  H  H259  1  0.49204070  0.96769713  0.85418951  1
  H  H260  1  0.15610660  0.52316753  0.92694555  1
  H  H261  1  0.01167084  0.50929805  0.87245648  1
  C  C262  1  0.32368940  0.62050629  0.75417316  1
  H  H263  1  0.49553520  0.74798086  0.78372420  1
  H  H264  1  0.14700489  0.56004238  0.75292131  1
  H  H265  1  0.65370412  0.41445813  0.19262029  1
  C  C266  1  0.83792926  0.25690778  0.11393850  1
  C  C267  1  0.50933357  0.15399154  0.21452945  1
  N  N268  1  0.82801465  0.18418500  0.12794676  1
  N  N269  1  0.59319070  0.31794504  0.03427369  1
  H  H270  1  0.77678406  0.37185394  0.08702268  1
  N  N271  1  0.53323595  0.37079379  0.11834687  1
  H  H272  1  0.60961037  0.17654609  0.14912968  1
  C  C273  1  0.68237444  0.28043940  0.11665519  1
  H  H274  1  0.89649813  0.15460750  0.22987453  1
  C  C275  1  0.75653006  0.45213116  0.24714881  1
  C  C276  1  0.76733969  0.31166140  0.10909423  1
  C  C277  1  0.71434857  0.44938883  0.19272525  1
  H  H278  1  0.90716053  0.27150066  0.10256451  1
  H  H279  1  0.74874111  0.10035755  0.17041902  1
  Cu  Cu280  1  0.81976898  0.04449535  0.07609492  1
  C  C281  1  0.59819625  0.32325573  0.09194560  1
  C  C282  1  0.67522881  0.20368056  0.13978328  1
  Cu  Cu283  1  0.94113723  0.13721296  0.12435026  1
  N  N284  1  0.90690607  0.02769540  0.13547708  1
  N  N285  1  0.66880379  0.49144436  0.03586335  1
  C  C286  1  0.75346491  0.16094429  0.15154555  1
  N  N287  1  0.99298368  0.18663285  0.04403073  1
  C  C288  1  0.50194130  0.09743702  0.16875732  1
  H  H289  1  0.53491044  0.04118756  0.17246196  1
  C  C290  1  0.89887125  0.01785089  0.19141858  1
  N  N291  1  0.50985378  0.37702731  0.01713961  1
  C  C292  1  0.95376044  0.18165571  0.24805542  1
  N  N293  1  0.89165835  0.00813625  0.24207405  1
  N  N294  1  0.77060615  0.32699629  0.41945840  1
  C  C295  1  0.58447572  0.14818380  0.25449077  1
  N  N296  1  0.54434508  0.48220824  0.37983032  1
  C  C297  1  0.94807120  0.01518083  0.41649146  1
  H  H298  1  0.94065893  0.14269720  0.42876898  1
  C  C299  1  0.97133264  0.33137860  0.46850797  1
  N  N300  1  0.60040136  0.20403946  0.29733739  1
  N  N301  1  0.92202221  0.02283935  0.36323718  1
  C  C302  1  0.83288737  0.26721050  0.41512651  1
  H  H303  1  0.88208091  0.25281947  0.31197690  1
  N  N304  1  0.80510596  0.20570486  0.38658710  1
  N  N305  1  0.89806322  0.02312354  0.46866477  1
  C  C306  1  0.97222956  0.19793018  0.44310776  1
  H  H307  1  0.93868078  0.38683320  0.47365611  1
  C  C308  1  0.72058492  0.22641805  0.36996858  1
  C  C309  1  0.92694147  0.27134449  0.44001898  1
  N  N310  1  0.70363888  0.10842634  0.29981991  1
  N  N311  1  0.64682314  0.08901759  0.25783199  1
  C  C312  1  0.94570674  0.23324845  0.29558921  1
  C  C313  1  0.67481351  0.18122140  0.32269995  1
  N  N314  1  0.51223591  0.16539942  0.49129945  1
  N  N315  1  0.70149020  0.30208850  0.38895489  1
  H  H316  1  0.59510924  0.25041812  0.47010370  1
  Cu  Cu317  1  0.80338916  0.02780499  0.33960374  1
  N  N318  1  0.76877622  0.03362542  0.41694144  1
  C  C319  1  0.80670189  0.02882125  0.46050287  1
  N  N320  1  0.83051386  0.49052210  0.25605257  1
  H  H321  1  0.72999432  0.42531545  0.28642569  1
  Cu  Cu322  1  0.99022665  0.02867684  0.29592259  1
  Cu  Cu323  1  0.58660425  0.48993500  0.46204935  1
  H  H324  1  0.76434307  0.17153100  0.49128937  1
  H  H325  1  0.59070326  0.31368573  0.58166104  1
  Cu  Cu326  1  0.84309885  0.44307451  0.62265215  1
  N  N327  1  0.60008081  0.46347633  0.54231574  1
  C  C328  1  0.76238956  0.05248148  0.51988703  1
  C  C329  1  0.55678006  0.25877922  0.56771297  1
  C  C330  1  0.92124490  0.21173260  0.59217596  1
  N  N331  1  0.98291194  0.08481537  0.72415936  1
  N  N332  1  0.54845038  0.43714757  0.64640336  1
  C  C333  1  0.68275558  0.46189690  0.56753217  1
  C  C334  1  0.55997837  0.22815083  0.50970746  1
  N  N335  1  0.57654525  0.28142535  0.69147449  1
  N  N336  1  0.88377420  0.33908151  0.62746807  1
  C  C337  1  0.93037963  0.24067915  0.69410434  1
  C  C338  1  0.90124666  0.31703296  0.68138842  1
  N  N339  1  0.96397009  0.04252592  0.62878754  1
  C  C340  1  0.74982282  0.13415841  0.52812199  1
  C  C341  1  0.54725054  0.44876665  0.58428358  1
  N  N342  1  0.72034511  0.43752661  0.61591652  1
  Cu  Cu343  1  0.65309673  0.39163723  0.67451504  1
  H  H344  1  0.88840424  0.36378962  0.71482070  1
  C  C345  1  0.73659486  0.15937650  0.58695119  1
  H  H346  1  0.87598510  0.31003864  0.54027673  1
  C  C347  1  0.96523822  0.10066395  0.66692682  1
  H  H348  1  0.94082052  0.17608671  0.55428149  1
  C  C349  1  0.93746037  0.18256648  0.64862824  1
  C  C350  1  0.89683600  0.29067705  0.58367208  1
  H  H351  1  0.73690637  0.21721631  0.60293982  1
  Cu  Cu352  1  0.93048206  0.02625768  0.55153396  1
  C  C353  1  0.52094292  0.22642043  0.67173480  1
  N  N354  1  0.71074088  0.11597554  0.63268652  1
  C  C355  1  0.51157625  0.20705197  0.60650232  1
  C  C356  1  0.70608198  0.03929381  0.61935467  1
  N  N357  1  0.83651816  0.49390496  0.53042183  1
  H  H358  1  0.93894166  0.22391183  0.74035737  1
  H  H359  1  0.84154706  0.01030454  0.74398887  1
  C  C360  1  0.74147302  0.00509004  0.56878891  1
  C  C361  1  0.74939797  0.48801195  0.51896675  1
  H  H362  1  0.67890277  0.00892758  0.65758612  1
  N  N363  1  0.68056531  0.38248491  0.77409732  1
  C  C364  1  0.79761535  0.46962728  0.82653110  1
  C  C365  1  0.61479241  0.33320385  0.79268941  1
  N  N366  1  0.67949049  0.39840478  0.87636214  1
  N  N367  1  0.60323534  0.33383768  0.85129167  1
  N  N368  1  0.78751963  0.38076945  0.98094947  1
  Cu  Cu369  1  0.68102483  0.43640664  0.95479270  1
  N  N370  1  0.95844996  0.06048418  0.91470605  1
  C  C371  1  0.71878056  0.41264989  0.82480508  1
  C  C372  1  0.87525926  0.45378598  0.85525374  1
  C  C373  1  0.97250590  0.15781134  0.98836074  1
  H  H374  1  0.88139956  0.39817413  0.87938259  1
  N  N375  1  0.77297725  0.31159969  0.98654773  1
  Cu  Cu376  1  0.65296883  0.27390731  0.96925160  1
  C  C377  1  0.93264032  0.07606757  0.96874531  1
  C  C378  1  0.56580245  0.27830350  0.75085328  1
  Cu  Cu379  1  0.52115629  0.28379570  0.90174581  1
  Cu  Cu380  1  0.51525630  0.41841020  0.94401850  1
  N  N381  1  0.50755417  0.22012499  0.76793551  1
  H  H382  1  0.70883159  0.08988336  0.78218434  1
  C  C383  1  0.70773329  0.02889391  0.76550101  1
  N  N384  1  0.87058671  0.03174501  0.99730213  1
  N  N385  1  0.62572561  0.01526038  0.75417460  1
  N  N386  1  0.64172184  0.84974404  0.13658655  1
  C  C387  1  0.88150644  0.73993842  0.01387940  1
  H  H388  1  0.79056453  0.88761235  0.04311275  1
  N  N389  1  0.72938830  0.95717544  0.10830763  1
  N  N390  1  0.55591053  0.68212886  0.09429988  1
  N  N391  1  0.51618889  0.62942819  0.00381094  1
  Cu  Cu392  1  0.62660003  0.73204113  0.16079764  1
  N  N393  1  0.62447270  0.67981989  0.23377772  1
  H  H394  1  0.90028973  0.77944698  0.05335375  1
  C  C395  1  0.79963580  0.82208930  0.13830886  1
  C  C396  1  0.59494389  0.91319436  0.12215501  1
  C  C397  1  0.62809281  0.55308819  0.05716875  1
  N  N398  1  0.78236534  0.74836743  0.16229681  1
  N  N399  1  0.64631554  0.97861553  0.10533547  1
  N  N400  1  0.85862062  0.70746109  0.16445795  1
  C  C401  1  0.56566876  0.61885193  0.05116701  1
  C  C402  1  0.72586166  0.87758669  0.12886863  1
  C  C403  1  0.92275615  0.76075621  0.14923805  1
  N  N404  1  0.88791226  0.83121404  0.13084955  1
  H  H405  1  0.64495491  0.78969102  0.03709986  1
  C  C406  1  0.69086385  0.50885638  0.08969784  1
  N  N407  1  0.57451670  0.59002016  0.23405885  1
  H  H408  1  0.61571052  0.82138532  0.24673243  1
  H  H409  1  0.99581352  0.57051329  0.02062625  1
  C  C410  1  0.85875946  0.53192974  0.21299781  1
  C  C411  1  0.82106089  0.68046831  0.01701256  1
  C  C412  1  0.82261914  0.53775709  0.15519518  1
  H  H413  1  0.85435868  0.57202191  0.12019715  1
  C  C414  1  0.74135107  0.50123442  0.14657528  1
  Cu  Cu415  1  0.50109522  0.56406767  0.17407244  1
  H  H416  1  0.92242186  0.55758398  0.22528577  1
  C  C417  1  0.67632441  0.82673672  0.00270008  1
  C  C418  1  0.75190079  0.87588277  0.00239225  1
  H  H419  1  0.86538481  0.86716229  0.38584079  1
  N  N420  1  0.63712796  0.62452526  0.32753692  1
  C  C421  1  0.70366222  0.89742731  0.29460613  1
  N  N422  1  0.80589852  0.52066403  0.43414809  1
  H  H423  1  0.55911759  0.92324787  0.34590024  1
  C  C424  1  0.57074530  0.94101947  0.44187044  1
  H  H425  1  0.80943008  0.72496405  0.37361116  1
  N  N426  1  0.56150000  0.63536536  0.45379603  1
  N  N427  1  0.76423478  0.90846577  0.33590751  1
  H  H428  1  0.91446011  0.67720113  0.42638211  1
  H  H429  1  0.93572427  0.74612248  0.32109242  1
  C  C430  1  0.58717917  0.57379922  0.29010334  1
  C  C431  1  0.66956993  0.82346953  0.28010576  1
  H  H432  1  0.98757399  0.50782632  0.38293876  1
  C  C433  1  0.80799687  0.84734541  0.36176228  1
  Cu  Cu434  1  0.66073300  0.61031811  0.41070184  1
  C  C435  1  0.70708796  0.75603372  0.30831096  1
  C  C436  1  0.86964793  0.51685466  0.47710789  1
  C  C437  1  0.77222954  0.77197724  0.35175729  1
  Cu  Cu438  1  0.89622271  0.90065583  0.27925247  1
  C  C439  1  0.65327345  0.68644891  0.28891993  1
  N  N440  1  0.73045538  0.50309102  0.46100498  1
  C  C441  1  0.54267839  0.50460251  0.31787592  1
  C  C442  1  0.54130680  0.90217374  0.39046888  1
  C  C443  1  0.96515002  0.53573687  0.47508766  1
  H  H444  1  0.62926528  0.97976365  0.44944309  1
  N  N445  1  0.54156857  0.92559389  0.49662842  1
  C  C446  1  0.96466898  0.71688854  0.41440280  1
  C  C447  1  0.97468838  0.75632189  0.36119341  1
  H  H448  1  0.60761993  0.81551769  0.46701819  1
  C  C449  1  0.66345069  0.78397434  0.48972462  1
  H  H450  1  0.77135270  0.86570476  0.46188415  1
  C  C451  1  0.74896219  0.81852006  0.48850010  1
  H  H452  1  0.67869921  0.95320628  0.27758285  1
  N  N453  1  0.81593772  0.78160841  0.51404383  1
  C  C454  1  0.91204198  0.74949429  0.68950610  1
  C  C455  1  0.77581453  0.98332773  0.74263621  1
  N  N456  1  0.92387152  0.54026491  0.64848141  1
  C  C457  1  0.65075373  0.70652871  0.51223142  1
  C  C458  1  0.72348990  0.67169344  0.53886980  1
  N  N459  1  0.87891766  0.60856558  0.65072294  1
  H  H460  1  0.74744081  0.93964231  0.56245992  1
  C  C461  1  0.93280047  0.66493583  0.67354767  1
  N  N462  1  0.92216531  0.86526106  0.73178877  1
  C  C463  1  0.83967444  0.85300895  0.70649634  1
  H  H464  1  0.72151444  0.61237726  0.56125944  1
  Cu  Cu465  1  0.60396738  0.53155441  0.67360555  1
  N  N466  1  0.96926761  0.80202731  0.71866528  1
  H  H467  1  0.64201626  0.66386630  0.71826487  1
  Cu  Cu468  1  0.98363172  0.93549139  0.64677116  1
  C  C469  1  0.76158054  0.90740742  0.71793782  1
  N  N470  1  0.83397698  0.78247171  0.67940842  1
  H  H471  1  0.65396177  0.82772681  0.70143812  1
  C  C472  1  0.80100651  0.71783546  0.54592851  1
  H  H473  1  0.86181147  0.70165010  0.56738852  1
  N  N474  1  0.54296608  0.54093398  0.74124041  1
  C  C475  1  0.66978519  0.88829455  0.71746908  1
  C  C476  1  0.55671691  0.66886483  0.50281090  1
  H  H477  1  0.53446332  0.93993953  0.72479359  1
  H  H478  1  0.97868151  0.55837250  0.56931040  1
  C  C479  1  0.60617702  0.94446111  0.73118690  1
  H  H480  1  0.60480418  0.64658473  0.90730665  1
  C  C481  1  0.79033618  0.53995906  0.79214262  1
  H  H482  1  0.72529454  0.75502906  0.91546095  1
  C  C483  1  0.99062811  0.80301031  0.93670593  1
  C  C484  1  0.74040355  0.71397503  0.78058670  1
  N  N485  1  0.89491895  0.98585019  0.89861381  1
  C  C486  1  0.88490474  0.69515674  0.91614042  1
  C  C487  1  0.64508287  0.86396486  0.91083513  1
  C  C488  1  0.54520137  0.57829715  0.79436239  1
  C  C489  1  0.81772972  0.64184891  0.93679600  1
  C  C490  1  0.71803285  0.91158791  0.90621055  1
  N  N491  1  0.75600637  0.74973462  0.83121896  1
  C  C492  1  0.70264239  0.72722332  0.87499162  1
  C  C493  1  0.86019460  0.59008416  0.79536655  1
  H  H494  1  0.72953034  0.54930975  0.76507886  1
  H  H495  1  0.60046276  0.84845471  0.87480084  1
  N  N496  1  0.62293956  0.82148738  0.95703662  1
  C  C497  1  0.91522541  0.75188068  0.95416241  1
  C  C498  1  0.78164382  0.91748779  0.95333847  1
  H  H499  1  0.77873605  0.60069338  0.91082902  1
  H  H500  1  0.72650825  0.94475948  0.86211508  1
  H  H501  1  0.91224417  0.69804720  0.87030803  1
  C  C502  1  0.85440535  0.97919927  0.94923347  1
  C  C503  1  0.61664694  0.63860752  0.81093633  1
  Cu  Cu504  1  0.92170528  0.94626213  0.82405882  1
  N  N505  1  0.93404893  0.57754210  0.82294387  1
  C  C506  1  0.63643967  0.66927741  0.86712639  1
  H  H507  1  0.79135871  0.74547063  0.75467540  1
  C  C508  1  0.66430607  0.67322799  0.76382096  1
  N  N509  1  0.78105306  0.62925449  0.98964434  1
  C  C510  1  0.94387955  0.51136209  0.85126734  1
  H  H511  1  0.86718003  0.64405636  0.76842733  1
