# generated using pymatgen
data_Cu5H17(C6N5)4
_symmetry_space_group_name_H-M   'P 1'
_cell_length_a   19.22996810
_cell_length_b   18.87970372
_cell_length_c   16.83568826
_cell_angle_alpha   90.00000000
_cell_angle_beta   90.00000000
_cell_angle_gamma   90.00000000
_symmetry_Int_Tables_number   1
_chemical_formula_structural   Cu5H17(C6N5)4
_chemical_formula_sum   'Cu40 H136 C192 N160'
_cell_volume   6112.29932356
_cell_formula_units_Z   8
loop_
 _symmetry_equiv_pos_site_id
 _symmetry_equiv_pos_as_xyz
  1  'x, y, z'
loop_
 _atom_site_type_symbol
 _atom_site_label
 _atom_site_symmetry_multiplicity
 _atom_site_fract_x
 _atom_site_fract_y
 _atom_site_fract_z
 _atom_site_occupancy
  C  C0  1  0.33529054  0.17314825  0.16002525  1
  C  C1  1  0.48680660  0.21355129  0.38004805  1
  C  C2  1  0.22973187  0.09692036  0.15028816  1
  H  H3  1  0.34022105  0.05114780  0.13025659  1
  N  N4  1  0.24126539  0.06842455  0.22342030  1
  H  H5  1  0.17857235  0.08116050  0.12350639  1
  C  C6  1  0.35030856  0.13827746  0.23343386  1
  C  C7  1  0.37762781  0.15019101  0.41230506  1
  C  C8  1  0.41320330  0.21078825  0.38455633  1
  Cu  Cu9  1  0.04015047  0.17008091  0.18973098  1
  C  C10  1  0.42250972  0.09301956  0.42971465  1
  N  N11  1  0.07422763  0.07372835  0.20084388  1
  C  C12  1  0.49304734  0.09555162  0.41011609  1
  C  C13  1  0.08215312  0.03187885  0.13959760  1
  C  C14  1  0.04023274  0.13070313  0.06383001  1
  C  C15  1  0.07335194  0.06647793  0.05589115  1
  C  C16  1  0.29582491  0.09363667  0.26152070  1
  N  N17  1  0.17273319  0.09644900  0.42577074  1
  C  C18  1  0.27795009  0.14524987  0.11865817  1
  H  H19  1  0.39588314  0.15516250  0.26895666  1
  N  N20  1  0.00712831  0.03511545  0.34300870  1
  H  H21  1  0.26721641  0.16936322  0.05853075  1
  N  N22  1  0.01356186  0.18633730  0.07152523  1
  Cu  Cu23  1  0.09334019  0.06502863  0.31029970  1
  N  N24  1  0.46131609  0.02390788  0.09223712  1
  N  N25  1  0.26175416  0.08242895  0.44454402  1
  N  N26  1  0.25585541  0.19020885  0.39240990  1
  H  H27  1  0.28832179  0.06825295  0.31906302  1
  N  N28  1  0.48587477  0.20176309  0.18673886  1
  C  C29  1  0.29969860  0.13965029  0.41962299  1
  N  N30  1  0.16787985  0.15472549  0.39435973  1
  C  C31  1  0.36798682  0.24163489  0.12759340  1
  H  H32  1  0.40175747  0.04904009  0.46542831  1
  N  N33  1  0.10084691  0.24236989  0.23477482  1
  C  C34  1  0.34358056  0.01757139  0.07637497  1
  C  C35  1  0.40970157  0.00191108  0.04625110  1
  C  C36  1  0.24587530  0.11913832  0.93038228  1
  H  H37  1  0.21194294  0.05326003  0.55827075  1
  N  N38  1  0.08490685  0.12735504  0.85653315  1
  N  N39  1  0.49846996  0.06108559  0.82913106  1
  C  C40  1  0.23990531  0.11051014  0.71912504  1
  N  N41  1  0.37028986  0.20639933  0.88421671  1
  C  C42  1  0.21132722  0.17644217  0.69484142  1
  H  H43  1  0.34154366  0.15866526  0.55714109  1
  C  C44  1  0.30335440  0.15210506  0.60648681  1
  Cu  Cu45  1  0.40688745  0.13527174  0.95283108  1
  C  C46  1  0.29505880  0.09322968  0.66786284  1
  N  N47  1  0.32231853  0.03466362  0.84048382  1
  H  H48  1  0.12916264  0.12945101  0.81885696  1
  H  H49  1  0.44851738  0.10045481  0.67314967  1
  C  C50  1  0.25237144  0.19603908  0.93109966  1
  C  C51  1  0.10300029  0.04143418  0.98036667  1
  N  N52  1  0.03106410  0.16235075  0.64355539  1
  H  H53  1  0.11662607  0.04742064  0.66505438  1
  H  H54  1  0.22542382  0.08128487  0.77261801  1
  C  C55  1  0.25483279  0.20087750  0.62662451  1
  C  C56  1  0.16750718  0.22305306  0.74414860  1
  N  N57  1  0.32570207  0.03175195  0.67723219  1
  H  H58  1  0.35834796  0.06642234  0.81269695  1
  H  H59  1  0.03795501  0.20994912  0.67287185  1
  C  C60  1  0.28511365  0.07500618  0.88208954  1
  H  H61  1  0.36422094  0.02174379  0.63593011  1
  Cu  Cu62  1  0.45985959  0.21367248  0.84046847  1
  C  C63  1  0.09439174  0.08639601  0.91607356  1
  C  C64  1  0.21345271  0.23485966  0.98516413  1
  H  H65  1  0.20814194  0.08688193  0.96435685  1
  C  C66  1  0.30877653  0.23214225  0.87860770  1
  N  N67  1  0.00659509  0.11521292  0.68837803  1
  Cu  Cu68  1  0.06046646  0.22917856  0.85923199  1
  N  N69  1  0.47820411  0.23648257  0.65485525  1
  C  C70  1  0.48950443  0.07159367  0.63392601  1
  C  C71  1  0.18524613  0.00269826  0.57099380  1
  C  C72  1  0.13601998  0.00289027  0.63344325  1
  H  H73  1  0.10971048  0.45822750  0.39978608  1
  N  N74  1  0.11704253  0.35802156  0.34854568  1
  Cu  Cu75  1  0.31253411  0.37980824  0.09029535  1
  N  N76  1  0.41379377  0.39747998  0.07692055  1
  C  C77  1  0.43006964  0.45878747  0.07365060  1
  C  C78  1  0.40116170  0.37222546  0.44877015  1
  N  N79  1  0.21902753  0.40027422  0.13559400  1
  N  N80  1  0.09506718  0.45828790  0.21292084  1
  H  H81  1  0.36872217  0.35883642  0.39292513  1
  Cu  Cu82  1  0.22515779  0.27205216  0.13634124  1
  N  N83  1  0.11288999  0.28832552  0.18676198  1
  Cu  Cu84  1  0.03283290  0.34796949  0.27890622  1
  Cu  Cu85  1  0.16320219  0.37300449  0.23156579  1
  C  C86  1  0.13922203  0.40789367  0.39409317  1
  N  N87  1  0.18150556  0.26566007  0.03339057  1
  Cu  Cu88  1  0.07617356  0.27254493  0.07682442  1
  H  H89  1  0.17899207  0.39119457  0.43509030  1
  N  N90  1  0.23672877  0.29520446  0.29686468  1
  N  N91  1  0.19310789  0.45456803  0.11171305  1
  H  H92  1  0.38551904  0.49309842  0.08620238  1
  N  N93  1  0.11420138  0.49070150  0.15379281  1
  Cu  Cu94  1  0.48764557  0.33051465  0.08086215  1
  N  N95  1  0.42964851  0.43682891  0.44271157  1
  N  N96  1  0.31910707  0.28604220  0.11275755  1
  Cu  Cu97  1  0.15527199  0.36809908  0.01099159  1
  H  H98  1  0.48555379  0.47389534  0.05515578  1
  N  N99  1  0.43527957  0.25238535  0.12322100  1
  N  N100  1  0.28506590  0.26197430  0.32551612  1
  Cu  Cu101  1  0.14905556  0.26519029  0.34050541  1
  H  H102  1  0.38264898  0.25301169  0.36061067  1
  H  H103  1  0.07733848  0.43265490  0.62691357  1
  H  H104  1  0.40722484  0.26882776  0.51232471  1
  N  N105  1  0.22955869  0.35203808  0.58518546  1
  H  H106  1  0.30990882  0.34920843  0.74123209  1
  N  N107  1  0.04014624  0.30565101  0.97005045  1
  N  N108  1  0.48588065  0.34868226  0.91217345  1
  H  H109  1  0.29091229  0.44182698  0.87174923  1
  H  H110  1  0.45430549  0.38814285  0.94051321  1
  C  C111  1  0.32632825  0.30564889  0.78177376  1
  N  N112  1  0.22554591  0.39528834  0.93088699  1
  C  C113  1  0.26814255  0.44215737  0.92889862  1
  H  H114  1  0.27608395  0.47862199  0.98193128  1
  H  H115  1  0.13995520  0.30965409  0.61443385  1
  C  C116  1  0.48002891  0.41923919  0.57254952  1
  C  C117  1  0.16394577  0.36019161  0.60318414  1
  N  N118  1  0.07562842  0.35164422  0.94008628  1
  Cu  Cu119  1  0.19084756  0.32388046  0.85811899  1
  H  H120  1  0.37931952  0.28523353  0.77756526  1
  N  N121  1  0.28393732  0.28672514  0.83269706  1
  C  C122  1  0.13456036  0.42681948  0.61136373  1
  C  C123  1  0.27099419  0.40657263  0.56956766  1
  N  N124  1  0.13640912  0.26001191  0.78691758  1
  C  C125  1  0.45964384  0.34856815  0.57426674  1
  C  C126  1  0.17764487  0.48598183  0.59304987  1
  C  C127  1  0.24827105  0.47807532  0.57253482  1
  C  C128  1  0.48742593  0.30658451  0.64729235  1
  C  C129  1  0.41923513  0.32402214  0.50828180  1
  H  H130  1  0.32186998  0.38597006  0.55036262  1
  N  N131  1  0.25111726  0.49844780  0.76480865  1
  H  H132  1  0.15389777  0.48578099  0.80818006  1
  H  H133  1  0.24839927  0.25289929  0.59626073  1
  C  C134  1  0.47151785  0.45582891  0.50025964  1
  N  N135  1  0.09381193  0.63895726  0.27625321  1
  H  H136  1  0.31691321  0.67392145  0.42996959  1
  H  H137  1  0.01341363  0.69972076  0.16502303  1
  N  N138  1  0.15221781  0.72557697  0.33363207  1
  H  H139  1  0.45602183  0.56821748  0.26171357  1
  C  C140  1  0.18048138  0.70405450  0.18537738  1
  C  C141  1  0.34330559  0.54381490  0.25115772  1
  C  C142  1  0.46071975  0.63919449  0.40476126  1
  N  N143  1  0.24939023  0.72987864  0.03696263  1
  C  C144  1  0.32694341  0.63631899  0.37650154  1
  C  C145  1  0.14329169  0.68854939  0.26470536  1
  C  C146  1  0.40160462  0.57723729  0.28459307  1
  H  H147  1  0.21417017  0.61461203  0.34094641  1
  N  N148  1  0.07537072  0.63237812  0.37646562  1
  C  C149  1  0.27132287  0.60723128  0.33046778  1
  C  C150  1  0.39431680  0.61934315  0.35292584  1
  C  C151  1  0.15862430  0.67407645  0.11384424  1
  N  N152  1  0.10592457  0.68128323  0.40762330  1
  N  N153  1  0.42362446  0.65269079  0.05922948  1
  C  C154  1  0.19366017  0.68812710  0.04142005  1
  H  H155  1  0.11763155  0.63251035  0.12116165  1
  N  N156  1  0.45557023  0.65033558  0.48280024  1
  N  N157  1  0.27828144  0.56381200  0.26919027  1
  H  H158  1  0.02432338  0.71270439  0.32619567  1
  H  H159  1  0.34345378  0.50756658  0.19739927  1
  H  H160  1  0.48785097  0.51187882  0.48317620  1
  Cu  Cu161  1  0.00831540  0.50402136  0.24932283  1
  H  H162  1  0.12593038  0.61346470  0.83930407  1
  N  N163  1  0.17003085  0.62500193  0.58974063  1
  H  H164  1  0.34950031  0.50918914  0.73535062  1
  N  N165  1  0.11105860  0.68751309  0.61818738  1
  H  H166  1  0.32982530  0.65400745  0.72801839  1
  C  C167  1  0.29191704  0.61743972  0.75744023  1
  H  H168  1  0.07186261  0.71440159  0.73642720  1
  C  C169  1  0.23234261  0.64576334  0.79543623  1
  C  C170  1  0.23061142  0.72896888  0.80449965  1
  C  C171  1  0.14200630  0.55927889  0.59984471  1
  C  C172  1  0.19245897  0.52453115  0.79659944  1
  C  C173  1  0.17867211  0.59614456  0.81386598  1
  N  N174  1  0.03286237  0.62607467  0.95714669  1
  N  N175  1  0.26726328  0.70603521  0.57890280  1
  N  N176  1  0.35105549  0.72031838  0.54564743  1
  N  N177  1  0.36712235  0.65942698  0.52930166  1
  N  N178  1  0.47655508  0.59302752  0.94973799  1
  N  N179  1  0.05695492  0.65613098  0.63498770  1
  N  N180  1  0.25507868  0.64319183  0.56483961  1
  N  N181  1  0.07305986  0.57162876  0.61420009  1
  C  C182  1  0.30325264  0.54296847  0.75568262  1
  N  N183  1  0.37495117  0.73893399  0.79951651  1
  H  H184  1  0.28094341  0.52445733  0.55793073  1
  H  H185  1  0.46433905  0.69748075  0.84596199  1
  N  N186  1  0.40862015  0.63911896  0.98931971  1
  N  N187  1  0.03784896  0.56357640  0.97331668  1
  N  N188  1  0.08350407  0.74192482  0.78464882  1
  H  H189  1  0.18493161  0.66626123  0.98067186  1
  H  H190  1  0.31293217  0.79394076  0.08443370  1
  N  N191  1  0.27270065  0.89019350  0.41251017  1
  C  C192  1  0.26452091  0.76434969  0.10407636  1
  N  N193  1  0.10393771  0.96029066  0.13470598  1
  C  C194  1  0.44408860  0.89698424  0.46791740  1
  H  H195  1  0.48488407  0.86648707  0.32952202  1
  N  N196  1  0.49772370  0.86111503  0.20602541  1
  N  N197  1  0.46947614  0.83676507  0.49475669  1
  N  N198  1  0.22493754  0.78024945  0.35110776  1
  H  H199  1  0.45050323  0.98565346  0.38829330  1
  N  N200  1  0.34049746  0.97798581  0.35312153  1
  C  C201  1  0.09645924  0.92805668  0.19865228  1
  C  C202  1  0.07059407  0.95518151  0.45954106  1
  C  C203  1  0.24819502  0.92977871  0.02551706  1
  H  H204  1  0.00431884  0.78690037  0.37291790  1
  N  N205  1  0.31899889  0.92009180  0.33161300  1
  H  H206  1  0.10366442  0.99084300  0.42241399  1
  H  H207  1  0.07906499  0.94744690  0.25498973  1
  C  C208  1  0.28761066  0.97564146  0.05188064  1
  C  C209  1  0.48111900  0.94177721  0.41726112  1
  H  H210  1  0.10937974  0.87089423  0.19448671  1
  N  N211  1  0.20545043  0.82986456  0.39176292  1
  N  N212  1  0.00548970  0.94804844  0.45216239  1
  H  H213  1  0.38643077  0.89593744  0.48153993  1
  C  C214  1  0.26269129  0.94150439  0.46558139  1
  H  H215  1  0.48216740  0.91518927  0.20438161  1
  C  C216  1  0.23548332  0.75331880  0.18026939  1
  N  N217  1  0.29687585  0.99851601  0.43957020  1
  H  H218  1  0.10632800  0.90034067  0.02389613  1
  H  H219  1  0.25274120  0.78167659  0.23447000  1
  N  N220  1  0.19941592  0.86251661  0.80573867  1
  N  N221  1  0.10958080  0.94162600  0.65946144  1
  C  C222  1  0.12207980  0.81254690  0.93618653  1
  C  C223  1  0.43923933  0.94801046  0.68819232  1
  C  C224  1  0.05484281  0.81741533  0.90089188  1
  N  N225  1  0.44135060  0.94468641  0.76832267  1
  N  N226  1  0.39664754  0.90445535  0.65037710  1
  Cu  Cu227  1  0.30878816  0.96509912  0.75405617  1
  Cu  Cu228  1  0.34035485  0.83625489  0.69178238  1
  C  C229  1  0.18208638  0.87556830  0.56491679  1
  N  N230  1  0.17498053  0.77142381  0.79823422  1
  C  C231  1  0.42844675  0.95094127  0.97919922  1
  Cu  Cu232  1  0.38924881  0.87874868  0.83089785  1
  H  H233  1  0.20154579  0.82479151  0.54359017  1
  C  C234  1  0.13695694  0.88176205  0.62802786  1
  C  C235  1  0.20840746  0.94066951  0.53175477  1
  H  H236  1  0.33517886  0.95397626  0.94287185  1
  C  C237  1  0.48844224  0.99730555  0.63435274  1
  N  N238  1  0.26223856  0.86116021  0.80024751  1
  N  N239  1  0.49325736  0.92560410  0.97397925  1
  N  N240  1  0.28763947  0.76907540  0.80804158  1
  H  H241  1  0.12434111  0.83547706  0.67012079  1
  N  N242  1  0.37944320  0.92926384  0.92815042  1
  H  H243  1  0.03269140  0.79412209  0.57198943  1
  N  N244  1  0.40216633  0.76818741  0.74413999  1
  N  N245  1  0.01434348  0.87050462  0.92654377  1
  C  C246  1  0.03514043  0.77029502  0.83028219  1
  H  H247  1  0.13896164  0.99815543  0.97513927  1
  H  H248  1  0.15823386  0.76858886  0.92275751  1
  H  H249  1  0.08773376  0.91939129  0.50528711  1
  C  C250  1  0.21655416  0.86967966  0.99118254  1
  C  C251  1  0.14280596  0.86602507  0.98998521  1
  H  H252  1  0.24711066  0.83149969  0.95535787  1
  N  N253  1  0.75227168  0.06245411  0.09096660  1
  Cu  Cu254  1  0.95000362  0.08685489  0.27268718  1
  Cu  Cu255  1  0.71479806  0.04934642  0.29559130  1
  N  N256  1  0.52982815  0.16615195  0.15316635  1
  N  N257  1  0.57151375  0.01425078  0.14666834  1
  N  N258  1  0.90489513  0.16507478  0.33377895  1
  N  N259  1  0.52476746  0.15681936  0.39372189  1
  C  C260  1  0.67138798  0.19181851  0.29982371  1
  H  H261  1  0.90132884  0.14052497  0.38764023  1
  Cu  Cu262  1  0.57039806  0.08744536  0.21992782  1
  Cu  Cu263  1  0.81022073  0.15956925  0.28716462  1
  N  N264  1  0.70076132  0.15478262  0.25823407  1
  N  N265  1  0.61557597  0.02137972  0.30096391  1
  Cu  Cu266  1  0.52639865  0.15135279  0.03557152  1
  Cu  Cu267  1  0.79504089  0.15408813  0.06853497  1
  N  N268  1  0.89778482  0.11931973  0.17106849  1
  Cu  Cu269  1  0.91424752  0.21462784  0.05569686  1
  N  N270  1  0.81524750  0.05665651  0.29746325  1
  Cu  Cu271  1  0.92540674  0.06734334  0.07252160  1
  N  N272  1  0.62862361  0.18589668  0.03702013  1
  Cu  Cu273  1  0.66828413  0.16745559  0.14214383  1
  N  N274  1  0.69749669  0.07001916  0.12739453  1
  N  N275  1  0.84232537  0.14953680  0.17534426  1
  C  C276  1  0.85144845  0.02304911  0.33735693  1
  H  H277  1  0.64207761  0.22910460  0.33990236  1
  Cu  Cu278  1  0.83802665  0.00597351  0.19813296  1
  C  C279  1  0.92576575  0.23007681  0.35214397  1
  H  H280  1  0.53499577  0.05498107  0.41982972  1
  H  H281  1  0.73046997  0.05750711  0.97452979  1
  Cu  Cu282  1  0.98763836  0.12632842  0.80672764  1
  C  C283  1  0.59513244  0.00984637  0.55204051  1
  Cu  Cu284  1  0.56792694  0.23737467  0.91716006  1
  N  N285  1  0.59443507  0.07885603  0.55462429  1
  N  N286  1  0.74518025  0.02705076  0.92742103  1
  H  H287  1  0.55377491  0.16775402  0.59043320  1
  N  N288  1  0.53547541  0.08968733  0.87811773  1
  H  H289  1  0.66876122  0.12300857  0.83249683  1
  N  N290  1  0.53528564  0.20437864  0.72713030  1
  C  C291  1  0.74006430  0.19548924  0.77730639  1
  C  C292  1  0.70287612  0.21510055  0.91273463  1
  C  C293  1  0.53977319  0.10932171  0.59030834  1
  N  N294  1  0.89735903  0.09484004  0.96870340  1
  C  C295  1  0.70155264  0.17328867  0.84032219  1
  N  N296  1  0.91013949  0.04238357  0.78152691  1
  Cu  Cu297  1  0.86993552  0.17355642  0.84275200  1
  N  N298  1  0.85695515  0.07300522  0.79456196  1
  H  H299  1  0.74813503  0.17057428  0.71675392  1
  Cu  Cu300  1  0.96037256  0.03972269  0.63382985  1
  N  N301  1  0.83435674  0.07932774  0.58735630  1
  N  N302  1  0.88927921  0.15708225  0.95732719  1
  N  N303  1  0.89412033  0.09532843  0.57403503  1
  N  N304  1  0.95543757  0.22166173  0.82960583  1
  Cu  Cu305  1  0.76529755  0.01779694  0.78581431  1
  C  C306  1  0.66187157  0.19849729  0.98169108  1
  N  N307  1  0.78555829  0.24959725  0.78782859  1
  N  N308  1  0.50125304  0.16101866  0.92739492  1
  N  N309  1  0.96342133  0.33846427  0.19015066  1
  C  C310  1  0.71941085  0.32189891  0.13664443  1
  C  C311  1  0.77607521  0.28703429  0.09560166  1
  H  H312  1  0.77502711  0.37366744  0.24700322  1
  C  C313  1  0.94366403  0.28931247  0.37551124  1
  C  C314  1  0.97219467  0.42652496  0.39625508  1
  C  C315  1  0.61578935  0.36475648  0.15975890  1
  C  C316  1  0.72632736  0.36159218  0.21349217  1
  C  C317  1  0.65329626  0.32530475  0.10344895  1
  H  H318  1  0.63468778  0.29956555  0.04836370  1
  N  N319  1  0.54849882  0.37145133  0.15751319  1
  C  C320  1  0.96759396  0.34773180  0.42363991  1
  C  C321  1  0.66139974  0.38898792  0.22565984  1
  N  N322  1  0.96278734  0.38481654  0.14440662  1
  H  H323  1  0.71142061  0.42907752  0.07178644  1
  H  H324  1  0.64682008  0.42007880  0.27908507  1
  C  C325  1  0.80064451  0.42463318  0.36357975  1
  N  N326  1  0.81968463  0.25899105  0.06042106  1
  C  C327  1  0.62561615  0.49886559  0.04154789  1
  N  N328  1  0.68130706  0.43393864  0.41217996  1
  N  N329  1  0.93114535  0.44428592  0.04480381  1
  H  H330  1  0.84672384  0.39389546  0.35755991  1
  H  H331  1  0.73696445  0.35443988  0.44063051  1
  C  C332  1  0.74269693  0.40327811  0.40888619  1
  N  N333  1  0.99585669  0.43193319  0.32402406  1
  N  N334  1  0.95745288  0.48072296  0.44058064  1
  H  H335  1  0.53141174  0.41167362  0.18853972  1
  C  C336  1  0.79621336  0.49192315  0.32244157  1
  H  H337  1  0.84068678  0.49827833  0.09940782  1
  C  C338  1  0.67577300  0.49535597  0.37253082  1
  H  H339  1  0.51872432  0.25854000  0.36316258  1
  C  C340  1  0.67776168  0.45022434  0.02534657  1
  C  C341  1  0.91345255  0.43017442  0.83592686  1
  C  C342  1  0.64498474  0.45353386  0.89121883  1
  N  N343  1  0.91149335  0.46288018  0.90683341  1
  C  C344  1  0.74354880  0.27950363  0.91643988  1
  N  N345  1  0.51656572  0.49468574  0.72288607  1
  C  C346  1  0.78476480  0.29419485  0.85112780  1
  H  H347  1  0.82446966  0.35477377  0.52912989  1
  C  C348  1  0.73038451  0.39536046  0.59361531  1
  C  C349  1  0.68242789  0.37119250  0.64877118  1
  H  H350  1  0.73282389  0.32235231  0.95753374  1
  N  N351  1  0.56228144  0.41275460  0.72027328  1
  N  N352  1  0.69008108  0.43564060  0.94783261  1
  H  H353  1  0.66539589  0.43616350  0.83177998  1
  C  C354  1  0.68296899  0.29586704  0.66043512  1
  N  N355  1  0.92712229  0.36165414  0.83600366  1
  N  N356  1  0.63539727  0.48981585  0.67341083  1
  H  H357  1  0.64924524  0.26653110  0.70035254  1
  N  N358  1  0.93269448  0.32622411  0.73989724  1
  H  H359  1  0.98883158  0.25943142  0.56810645  1
  N  N360  1  0.51326683  0.30879792  0.96144994  1
  H  H361  1  0.81497757  0.34150006  0.84057808  1
  C  C362  1  0.62233372  0.42352212  0.67929318  1
  H  H363  1  0.51209174  0.43871023  0.62193863  1
  H  H364  1  0.85008247  0.39681148  0.67110109  1
  Cu  Cu365  1  0.94346343  0.28933046  0.91419812  1
  C  C366  1  0.58724894  0.49951803  0.90508522  1
  N  N367  1  0.95634985  0.26534777  0.74069913  1
  N  N368  1  0.51732257  0.32941167  0.71663361  1
  H  H369  1  0.93503944  0.45644927  0.55137148  1
  H  H370  1  0.73231922  0.44921117  0.57509009  1
  C  C371  1  0.85941115  0.45366160  0.68897252  1
  C  C372  1  0.98575176  0.33702663  0.50203552  1
  C  C373  1  0.89101972  0.47857599  0.76186457  1
  N  N374  1  0.99949999  0.31594480  0.56521128  1
  N  N375  1  0.55648902  0.25744440  0.75956281  1
  C  C376  1  0.78118899  0.34158712  0.56935122  1
  N  N377  1  0.90671857  0.41212939  0.98853211  1
  N  N378  1  0.78948328  0.26990541  0.57624777  1
  H  H379  1  0.82043033  0.26375678  0.74547694  1
  C  C380  1  0.73620826  0.26444976  0.61797189  1
  C  C381  1  0.94126732  0.49758448  0.50487662  1
  N  N382  1  0.95805535  0.53967376  0.01795510  1
  H  H383  1  0.64970397  0.70219253  0.37502233  1
  C  C384  1  0.72970577  0.52714157  0.32817822  1
  C  C385  1  0.73537071  0.67100783  0.07977737  1
  H  H386  1  0.71938544  0.57986816  0.29930863  1
  N  N387  1  0.58369650  0.63971351  0.47005055  1
  N  N388  1  0.73377634  0.67521197  0.31568067  1
  N  N389  1  0.54815090  0.51528962  0.27750799  1
  N  N390  1  0.56078249  0.60822050  0.29443027  1
  C  C391  1  0.81150455  0.54898681  0.10040512  1
  N  N392  1  0.70847038  0.62178927  0.12639670  1
  H  H393  1  0.50933059  0.73251271  0.34472835  1
  C  C394  1  0.74520044  0.55989875  0.13162236  1
  H  H395  1  0.62533063  0.51606250  0.38176377  1
  N  N396  1  0.85334588  0.67166761  0.44147188  1
  C  C397  1  0.84577691  0.60689129  0.06288960  1
  N  N398  1  0.52860510  0.64353873  0.38533977  1
  N  N399  1  0.91352841  0.54241174  0.26726528  1
  C  C400  1  0.78509897  0.68977424  0.26407182  1
  C  C401  1  0.86216917  0.52242731  0.29056487  1
  H  H402  1  0.81763549  0.64102396  0.25655261  1
  N  N403  1  0.50771182  0.62032448  0.07151866  1
  C  C404  1  0.69009851  0.72604608  0.33778875  1
  H  H405  1  0.88426965  0.63682196  0.41142004  1
  C  C406  1  0.91799807  0.59961348  0.02399191  1
  C  C407  1  0.54913482  0.64128085  0.22518303  1
  N  N408  1  0.54398830  0.59515456  0.16734657  1
  H  H409  1  0.72160988  0.51403331  0.16476761  1
  H  H410  1  0.80779321  0.69035760  0.41290271  1
  H  H411  1  0.61791505  0.51925980  0.09908993  1
  C  C412  1  0.88875597  0.71967529  0.49047596  1
  C  C413  1  0.80417776  0.66578848  0.04784835  1
  H  H414  1  0.82525599  0.70182167  0.00147535  1
  H  H415  1  0.56220196  0.72670918  0.09327686  1
  C  C416  1  0.54029845  0.72144638  0.21940737  1
  H  H417  1  0.69927472  0.71263485  0.06274321  1
  H  H418  1  0.99907624  0.67631386  0.49240640  1
  N  N419  1  0.54214566  0.51240181  0.20602312  1
  C  C420  1  0.52500485  0.58349027  0.00483662  1
  H  H421  1  0.75514509  0.59285931  0.74022168  1
  N  N422  1  0.66206204  0.71312872  0.61528818  1
  C  C423  1  0.66181955  0.63678664  0.93122987  1
  C  C424  1  0.72315049  0.59910764  0.92066271  1
  H  H425  1  0.64146377  0.67189476  0.58089799  1
  N  N426  1  0.55843969  0.53773875  0.69977432  1
  H  H427  1  0.92430704  0.57899849  0.82316314  1
  N  N428  1  0.50610954  0.72445716  0.87313809  1
  C  C429  1  0.65545998  0.64112163  0.78469029  1
  H  H430  1  0.64000570  0.64407838  0.99104850  1
  H  H431  1  0.62433302  0.65247923  0.73284972  1
  H  H432  1  0.77349238  0.71510415  0.82697255  1
  C  C433  1  0.72162121  0.61182394  0.78845755  1
  N  N434  1  0.75580430  0.58917838  0.85194853  1
  C  C435  1  0.87042626  0.58462752  0.70239467  1
  C  C436  1  0.62491762  0.65811461  0.86065493  1
  N  N437  1  0.82967082  0.57660171  0.63658656  1
  C  C438  1  0.55860337  0.69386137  0.86472177  1
  C  C439  1  0.90050978  0.55215785  0.77203025  1
  H  H440  1  0.75246717  0.67293186  0.56941917  1
  C  C441  1  0.83705052  0.51080801  0.64366766  1
  H  H442  1  0.75826881  0.56942983  0.96092556  1
  H  H443  1  0.55043986  0.51666274  0.85850784  1
  H  H444  1  0.87648271  0.64677322  0.69700349  1
  C  C445  1  0.73242221  0.71269777  0.61208808  1
  N  N446  1  0.54284605  0.64481522  0.52337112  1
  C  C447  1  0.58219310  0.52840321  0.98177346  1
  N  N448  1  0.95131474  0.65144662  0.98106294  1
  C  C449  1  0.96408484  0.71923195  0.50490177  1
  H  H450  1  0.93388479  0.55579218  0.51001199  1
  C  C451  1  0.79409602  0.75522894  0.22885631  1
  C  C452  1  0.91216322  0.92520176  0.12275960  1
  Cu  Cu453  1  0.77777916  0.96193311  0.06931891  1
  C  C454  1  0.53777685  0.82608331  0.48078291  1
  C  C455  1  0.94789565  0.85449927  0.24296683  1
  C  C456  1  0.97638503  0.99163410  0.39430279  1
  C  C457  1  0.94295633  0.86524143  0.15988243  1
  N  N458  1  0.75867771  0.93854498  0.19233953  1
  H  H459  1  0.65061221  0.83185415  0.31196500  1
  H  H460  1  0.65873341  0.94271342  0.02270234  1
  N  N461  1  0.73823942  0.89764236  0.43979524  1
  C  C462  1  0.55416459  0.93309222  0.40066485  1
  H  H463  1  0.97926255  0.80156887  0.05171071  1
  C  C464  1  0.75193335  0.88126694  0.21565718  1
  N  N465  1  0.88148566  0.96977989  0.09006163  1
  C  C466  1  0.58887967  0.98347027  0.34466490  1
  C  C467  1  0.74323842  0.80876569  0.24400399  1
  Cu  Cu468  1  0.65816708  0.97793453  0.17065404  1
  H  H469  1  0.92548126  0.88880985  0.29016827  1
  C  C470  1  0.58323591  0.87135249  0.44125873  1
  H  H471  1  0.63725578  0.86180444  0.43781972  1
  C  C472  1  0.89482450  0.98348746  0.38646631  1
  C  C473  1  0.69036665  0.79234872  0.30208955  1
  C  C474  1  0.97195825  0.80249661  0.11756085  1
  C  C475  1  0.54403163  0.94723675  0.02006783  1
  H  H476  1  0.83877415  0.76632276  0.18751464  1
  C  C477  1  0.79653232  0.91408951  0.43060007  1
  C  C478  1  0.86694991  0.92858537  0.43178123  1
  H  H479  1  0.90079632  0.90005515  0.47314912  1
  H  H480  1  0.70534757  0.92154666  0.39686001  1
  C  C481  1  0.52712707  0.99781770  0.08649336  1
  C  C482  1  0.54120632  0.75548650  0.14567500  1
  C  C483  1  0.99651299  0.75489651  0.17321090  1
  C  C484  1  0.98096157  0.78906589  0.25105717  1
  C  C485  1  0.61210583  0.91511492  0.00415644  1
  N  N486  1  0.98900990  0.75484755  0.32256833  1
  C  C487  1  0.51353475  0.75800085  0.28789942  1
  C  C488  1  0.50168261  0.83106915  0.27889360  1
  H  H489  1  0.51905382  0.86228946  0.08972296  1
  C  C490  1  0.51867949  0.82646071  0.14486364  1
  C  C491  1  0.91387906  0.88675950  0.60233702  1
  C  C492  1  0.98100904  0.77848266  0.54848138  1
  C  C493  1  0.53907708  0.96834342  0.58190961  1
  C  C494  1  0.65318403  0.82135585  0.68984969  1
  H  H495  1  0.53405011  0.91158754  0.57479012  1
  H  H496  1  0.62469754  0.86544878  0.71432437  1
  N  N497  1  0.80496717  0.92447410  0.74523961  1
  N  N498  1  0.77214354  0.97194482  0.95534955  1
  C  C499  1  0.94938241  0.86400123  0.90038564  1
  C  C500  1  0.76736423  0.76232035  0.65725869  1
  Cu  Cu501  1  0.80812349  0.91062015  0.87266823  1
  C  C502  1  0.86004528  0.78171594  0.52306912  1
  C  C503  1  0.62374919  0.76547579  0.64862684  1
  C  C504  1  0.72983644  0.82052536  0.69331575  1
  C  C505  1  0.77067507  0.87778407  0.72236763  1
  C  C506  1  0.61643448  0.85791624  0.95929237  1
  C  C507  1  0.73585114  0.80740826  0.90460268  1
  C  C508  1  0.92448218  0.80141792  0.84714302  1
  C  C509  1  0.68499963  0.83553286  0.93364191  1
  N  N510  1  0.66885846  0.99238507  0.76119263  1
  H  H511  1  0.64130210  0.98915954  0.52089773  1
  N  N512  1  0.89871395  0.90865466  0.91483935  1
  C  C513  1  0.85501938  0.78369410  0.85714398  1
  C  C514  1  0.91497406  0.81905027  0.56222879  1
  N  N515  1  0.63041540  0.98850379  0.81560581  1
  Cu  Cu516  1  0.90945004  0.94075111  0.75556907  1
  N  N517  1  0.91318342  0.94101419  0.63375609  1
  H  H518  1  0.91312130  0.95109371  0.95146255  1
  H  H519  1  0.57043152  0.83076767  0.93684231  1
  Cu  Cu520  1  0.53113120  0.97466391  0.79351338  1
  H  H521  1  0.56585140  0.75468793  0.63995881  1
  C  C522  1  0.78845891  0.76330582  0.86519436  1
  H  H523  1  0.82494936  0.76433806  0.65198568  1
  Cu  Cu524  1  0.82120683  0.99610158  0.65176579  1
  N  N525  1  0.97092586  0.75621683  0.81138907  1
  H  H526  1  0.80416714  0.80091403  0.51846594  1
  H  H527  1  0.55033282  0.77492515  0.50429281  1
