# generated using pymatgen
data_Cu3H26C46(NO6)2
_symmetry_space_group_name_H-M   'P 1'
_cell_length_a   11.43509052
_cell_length_b   12.43512219
_cell_length_c   58.52588458
_cell_angle_alpha   90.00000000
_cell_angle_beta   90.00000000
_cell_angle_gamma   90.00000000
_symmetry_Int_Tables_number   1
_chemical_formula_structural   Cu3H26C46(NO6)2
_chemical_formula_sum   'Cu24 H208 C368 N16 O96'
_cell_volume   8322.19045312
_cell_formula_units_Z   8
loop_
 _symmetry_equiv_pos_site_id
 _symmetry_equiv_pos_as_xyz
  1  'x, y, z'
loop_
 _atom_site_type_symbol
 _atom_site_label
 _atom_site_symmetry_multiplicity
 _atom_site_fract_x
 _atom_site_fract_y
 _atom_site_fract_z
 _atom_site_occupancy
  C  C0  1  0.31952895  0.27991599  0.05819978  1
  C  C1  1  0.31676155  0.25832241  0.03264480  1
  C  C2  1  0.25933916  0.32750880  0.01695465  1
  C  C3  1  0.36768476  0.16183921  0.02353524  1
  C  C4  1  0.19882523  0.31513085  0.09169211  1
  C  C5  1  0.21016981  0.30418444  0.06812781  1
  C  C6  1  0.29819479  0.31450806  0.10514875  1
  C  C7  1  0.41164008  0.30449787  0.09542159  1
  H  H8  1  0.13309236  0.29774725  0.05811617  1
  C  C9  1  0.42415708  0.27465748  0.07196475  1
  C  C10  1  0.07807454  0.32995816  0.10163191  1
  H  H11  1  0.21762502  0.40271995  0.02265548  1
  O  O12  1  0.06816413  0.37564334  0.12068703  1
  H  H13  1  0.40821791  0.10970729  0.03563857  1
  C  C14  1  0.36828355  0.14176269  0.00027940  1
  O  O15  1  0.05000246  0.03888289  0.09757097  1
  H  H16  1  0.00489038  0.34652620  0.00295045  1
  C  C17  1  0.00679739  0.02904617  0.11775903  1
  H  H18  1  0.29037780  0.32823651  0.12296817  1
  Cu  Cu19  1  0.00541544  0.15480082  0.08037600  1
  H  H20  1  0.46619156  0.05385529  0.19673215  1
  C  C21  1  0.28256577  0.05752756  0.15072002  1
  O  O22  1  0.25572814  0.47520338  0.24717368  1
  H  H23  1  0.23455775  0.00716421  0.13811239  1
  C  C24  1  0.08221857  0.01104902  0.19211226  1
  C  C25  1  0.12427284  0.10946095  0.19944325  1
  C  C26  1  0.35488152  0.01283025  0.16735142  1
  H  H27  1  0.21269915  0.13363703  0.19585196  1
  H  H28  1  0.20054255  0.19851185  0.13801358  1
  O  O29  1  0.34629450  0.40025940  0.18538569  1
  C  C30  1  0.08075880  0.29496586  0.21565708  1
  C  C31  1  0.40499945  0.08201750  0.18409711  1
  C  C32  1  0.31376297  0.23084974  0.16788318  1
  C  C33  1  0.39738391  0.19065408  0.18393600  1
  O  O34  1  0.21114787  0.38259535  0.15785537  1
  O  O35  1  0.18945148  0.31450319  0.21398790  1
  H  H36  1  0.43419374  0.43559821  0.13309758  1
  Cu  Cu37  1  0.06119739  0.32665497  0.15102855  1
  O  O38  1  0.05872030  0.02597333  0.13552127  1
  Cu  Cu39  1  0.28382972  0.43961995  0.21467219  1
  C  C40  1  0.04717969  0.18693206  0.20968361  1
  H  H41  1  0.44414178  0.23730792  0.19710451  1
  C  C42  1  0.25484939  0.16683407  0.15179461  1
  C  C43  1  0.28772420  0.34448098  0.17115599  1
  O  O44  1  0.01628961  0.36776581  0.22405271  1
  C  C45  1  0.24085151  0.30064578  0.32960203  1
  C  C46  1  0.32030053  0.35800760  0.34326853  1
  C  C47  1  0.25093035  0.18906246  0.32871523  1
  H  H48  1  0.17986862  0.35017266  0.32066658  1
  C  C49  1  0.33280102  0.13276390  0.34193663  1
  H  H50  1  0.19297338  0.15080129  0.31633573  1
  C  C51  1  0.34981272  0.01221694  0.34037666  1
  C  C52  1  0.17087925  0.26506553  0.27262376  1
  H  H53  1  0.21193506  0.34301304  0.26901900  1
  N  N54  1  0.05858776  0.27091184  0.26819941  1
  C  C55  1  0.05377285  0.07891905  0.27649178  1
  C  C56  1  0.22686079  0.16661184  0.27829079  1
  N  N57  1  0.16926469  0.07509706  0.27927265  1
  H  H58  1  0.32219019  0.15987123  0.28158445  1
  H  H59  1  0.09000153  0.11337240  0.35922327  1
  C  C60  1  0.40730038  0.30680642  0.35663220  1
  H  H61  1  0.46580892  0.35515018  0.36766110  1
  C  C62  1  0.42049975  0.19461434  0.35581937  1
  C  C63  1  0.32247133  0.47895074  0.34170597  1
  H  H64  1  0.46180089  0.00188098  0.37220182  1
  C  C65  1  0.00129700  0.17879472  0.27140403  1
  H  H66  1  0.47976699  0.15835107  0.36855500  1
  H  H67  1  0.26481265  0.00136646  0.30644055  1
  H  H68  1  0.44855466  0.34941583  0.25259370  1
  Cu  Cu69  1  0.23650590  0.46673252  0.41582504  1
  O  O70  1  0.24831163  0.31617645  0.41255090  1
  C  C71  1  0.14031310  0.07094259  0.44107628  1
  O  O72  1  0.43493607  0.40102370  0.48402245  1
  O  O73  1  0.45463804  0.48117264  0.44204614  1
  H  H74  1  0.10223934  0.22076888  0.39192198  1
  C  C75  1  0.23521487  0.24373347  0.42739157  1
  H  H76  1  0.40123893  0.08223346  0.49197159  1
  C  C77  1  0.00523762  0.07027512  0.40091087  1
  C  C78  1  0.47678337  0.48566755  0.42128537  1
  Cu  Cu79  1  0.39120639  0.35473796  0.45652155  1
  C  C80  1  0.03917238  0.36408707  0.46722501  1
  H  H81  1  0.18121960  0.08124592  0.45824358  1
  O  O82  1  0.28511415  0.24836526  0.44658135  1
  O  O83  1  0.39229869  0.48321526  0.40689844  1
  C  C84  1  0.08622303  0.15362261  0.40468999  1
  H  H85  1  0.12430347  0.32150458  0.46835769  1
  C  C86  1  0.15442722  0.15497259  0.42406091  1
  H  H87  1  0.01508462  0.31932356  0.43138199  1
  Cu  Cu88  1  0.20688082  0.22369130  0.51303371  1
  Cu  Cu89  1  0.18628882  0.33711599  0.61487645  1
  O  O90  1  0.30931053  0.16766775  0.57641343  1
  O  O91  1  0.08464114  0.43225023  0.56964437  1
  C  C92  1  0.33398279  0.17517064  0.59601107  1
  O  O93  1  0.11575738  0.46601272  0.60704704  1
  O  O94  1  0.25963127  0.21079982  0.61125851  1
  N  N95  1  0.26776528  0.06600418  0.51308417  1
  O  O96  1  0.06217053  0.16461395  0.52103604  1
  H  H97  1  0.07479568  0.09485897  0.61348570  1
  H  H98  1  0.41514601  0.28548902  0.54445661  1
  C  C99  1  0.05727267  0.10483177  0.53833184  1
  O  O100  1  0.12180391  0.01492338  0.54078330  1
  C  C101  1  0.05105775  0.45892798  0.58985409  1
  C  C102  1  0.48313466  0.34187479  0.54265920  1
  O  O103  1  0.00542734  0.44527673  0.52566765  1
  C  C104  1  0.46278418  0.18858005  0.60369934  1
  O  O105  1  0.15461156  0.36445514  0.50792033  1
  C  C106  1  0.05089007  0.40084721  0.50879145  1
  C  C107  1  0.35680686  0.02121880  0.50280711  1
  O  O108  1  0.04058387  0.28219200  0.62414944  1
  O  O109  1  0.36525188  0.26487921  0.50437361  1
  C  C110  1  0.43263041  0.34719481  0.50237724  1
  H  H111  1  0.22064881  0.00045991  0.60199859  1
  C  C112  1  0.00299891  0.24249342  0.64335093  1
  C  C113  1  0.03809438  0.05964393  0.62883854  1
  H  H114  1  0.41334472  0.00977237  0.71603347  1
  O  O115  1  0.49363583  0.23417191  0.74650145  1
  O  O116  1  0.29831029  0.39285582  0.63545789  1
  C  C117  1  0.24918951  0.28998779  0.67481915  1
  C  C118  1  0.43182840  0.01019166  0.67663543  1
  C  C119  1  0.20962934  0.46220510  0.69258936  1
  C  C120  1  0.48151884  0.20146336  0.62674049  1
  H  H121  1  0.41015529  0.28183060  0.70720619  1
  C  C122  1  0.48807558  0.24852660  0.69765242  1
  H  H123  1  0.27045226  0.24348759  0.65868810  1
  C  C124  1  0.16038917  0.41711947  0.71185460  1
  H  H125  1  0.40398301  0.22199449  0.63668029  1
  C  C126  1  0.27488494  0.45621252  0.65177357  1
  C  C127  1  0.24988053  0.40493393  0.67302994  1
  H  H128  1  0.21404125  0.10475102  0.73596533  1
  C  C129  1  0.13070099  0.14296548  0.74009898  1
  C  C130  1  0.15653695  0.30191878  0.71258189  1
  H  H131  1  0.44142613  0.30286336  0.66453468  1
  C  C132  1  0.20601866  0.24297138  0.69409832  1
  H  H133  1  0.20405534  0.15419467  0.69446999  1
  H  H134  1  0.13349642  0.46711096  0.72682109  1
  C  C135  1  0.09766403  0.24381420  0.73174103  1
  C  C136  1  0.37491741  0.00124925  0.69845338  1
  C  C137  1  0.26425906  0.33476839  0.82303188  1
  C  C138  1  0.32437139  0.23514138  0.81769298  1
  C  C139  1  0.28664503  0.18735392  0.79662676  1
  O  O140  1  0.18882321  0.37572762  0.80998348  1
  O  O141  1  0.27983697  0.38348277  0.84222937  1
  C  C142  1  0.45201435  0.08654655  0.82546594  1
  C  C143  1  0.41639124  0.19042926  0.83083448  1
  H  H144  1  0.21383749  0.22205323  0.78585049  1
  H  H145  1  0.45365493  0.22867834  0.84568099  1
  Cu  Cu146  1  0.18906869  0.34746154  0.86595972  1
  H  H147  1  0.45278151  0.37257519  0.85186391  1
  C  C148  1  0.32642360  0.08626471  0.79022137  1
  C  C149  1  0.05220624  0.09781439  0.75614346  1
  H  H150  1  0.29157493  0.04481599  0.77491060  1
  C  C151  1  0.38931218  0.02732079  0.80764721  1
  C  C152  1  0.17576693  0.02591262  0.84013553  1
  H  H153  1  0.26741313  0.05106730  0.83690364  1
  N  N154  1  0.10770146  0.11130145  0.83893719  1
  Cu  Cu155  1  0.26911565  0.39460884  0.93164873  1
  O  O156  1  0.09221701  0.30585281  0.88973568  1
  O  O157  1  0.31016590  0.11213344  0.95071897  1
  H  H158  1  0.41659751  0.06743940  0.99289450  1
  H  H159  1  0.49347487  0.41597578  0.95752014  1
  C  C160  1  0.28952721  0.19161488  0.96141100  1
  H  H161  1  0.19436370  0.35574855  0.98235541  1
  O  O162  1  0.36876051  0.28774817  0.91339547  1
  O  O163  1  0.07441972  0.49551434  0.98099661  1
  H  H164  1  0.02118446  0.28253061  0.96276034  1
  O  O165  1  0.23473808  0.27418706  0.95049373  1
  C  C166  1  0.01391874  0.03805083  0.90104289  1
  O  O167  1  0.31990014  0.27739101  0.87759908  1
  C  C168  1  0.30762559  0.21332888  0.98674825  1
  H  H169  1  0.04106758  0.02562347  0.88358532  1
  C  C170  1  0.39640718  0.30384490  0.89282140  1
  O  O171  1  0.19398175  0.48675276  0.95155812  1
  C  C172  1  0.08635800  0.48546134  0.96109339  1
  O  O173  1  0.19827232  0.49897326  0.87753100  1
  C  C174  1  0.24676390  0.30554758  0.99410180  1
  C  C175  1  0.40152771  0.62503677  0.11160522  1
  C  C176  1  0.45771493  0.56666043  0.09480618  1
  H  H177  1  0.30465803  0.64144471  0.11211547  1
  H  H178  1  0.40284844  0.52265337  0.08222722  1
  O  O179  1  0.46366659  0.68333541  0.02545236  1
  H  H180  1  0.02436940  0.52584632  0.09701874  1
  C  C181  1  0.39255640  0.83389048  0.14909976  1
  C  C182  1  0.47938346  0.67276999  0.12817921  1
  H  H183  1  0.38706497  0.87097573  0.13182099  1
  O  O184  1  0.34326116  0.72739369  0.22822752  1
  C  C185  1  0.37629788  0.72040847  0.18970552  1
  C  C186  1  0.43529649  0.72764921  0.15016306  1
  H  H187  1  0.43555247  0.58120088  0.17127528  1
  H  H188  1  0.34492275  0.87168774  0.20600408  1
  C  C189  1  0.41591621  0.66874872  0.17006818  1
  H  H190  1  0.14327397  0.95872896  0.18284407  1
  C  C191  1  0.36537151  0.88971338  0.16943961  1
  C  C192  1  0.36056481  0.82893915  0.18992703  1
  O  O193  1  0.38825052  0.56655094  0.21629565  1
  C  C194  1  0.36473361  0.66558892  0.21321757  1
  H  H195  1  0.03264318  0.56399744  0.13908296  1
  H  H196  1  0.00947544  0.87512070  0.15553396  1
  O  O197  1  0.07878103  0.54486552  0.24765620  1
  C  C198  1  0.35360211  0.85363543  0.31844103  1
  C  C199  1  0.31174131  0.78351284  0.29833292  1
  C  C200  1  0.19309105  0.78539488  0.29168035  1
  C  C201  1  0.39376553  0.70776052  0.28874813  1
  H  H202  1  0.13664399  0.84344168  0.29912137  1
  C  C203  1  0.14642162  0.70966531  0.27634324  1
  C  C204  1  0.35179476  0.62751613  0.27468903  1
  H  H205  1  0.42425069  0.70883231  0.33359877  1
  C  C206  1  0.41771252  0.79667206  0.33486311  1
  C  C207  1  0.22932133  0.63215219  0.26868159  1
  O  O208  1  0.39963706  0.53318270  0.35322480  1
  H  H209  1  0.08545251  0.75951904  0.36701306  1
  C  C210  1  0.44314131  0.84885234  0.35540542  1
  H  H211  1  0.05567542  0.70836088  0.27037364  1
  H  H212  1  0.40914892  0.57432319  0.26494069  1
  C  C213  1  0.18734615  0.54625603  0.25389386  1
  O  O214  1  0.25090618  0.52318387  0.33020127  1
  C  C215  1  0.42618642  0.95803165  0.35687718  1
  C  C216  1  0.31191015  0.95989403  0.32029955  1
  H  H217  1  0.48572571  0.70763777  0.29413495  1
  H  H218  1  0.01602321  0.99791208  0.27720581  1
  H  H219  1  0.04048590  0.79280233  0.33625234  1
  H  H220  1  0.49523562  0.67291197  0.45690547  1
  Cu  Cu221  1  0.37305195  0.61783934  0.37729469  1
  H  H222  1  0.15360911  0.77254621  0.44119047  1
  C  C223  1  0.04790374  0.70303295  0.40141807  1
  C  C224  1  0.12157885  0.74652055  0.47604088  1
  O  O225  1  0.23705622  0.68300376  0.38447402  1
  H  H226  1  0.15456312  0.66786847  0.47523257  1
  C  C227  1  0.17150610  0.66629144  0.40149904  1
  C  C228  1  0.06958479  0.98678106  0.43561324  1
  C  C229  1  0.06761820  0.91173496  0.45748696  1
  C  C230  1  0.49963881  0.79772605  0.37664497  1
  O  O231  1  0.20646462  0.61783671  0.41904310  1
  C  C232  1  0.11860082  0.80736326  0.45669743  1
  C  C233  1  0.07018698  0.78246300  0.49676963  1
  H  H234  1  0.49243524  0.88498273  0.49957197  1
  C  C235  1  0.02003502  0.95034516  0.47741468  1
  C  C236  1  0.02651643  0.88355069  0.49771987  1
  C  C237  1  0.01927260  0.74830837  0.38081803  1
  O  O238  1  0.47366230  0.68965111  0.49790618  1
  C  C239  1  0.21589782  0.75234446  0.58062511  1
  H  H240  1  0.21963340  0.82233387  0.53885379  1
  C  C241  1  0.27973639  0.68150130  0.56454545  1
  O  O242  1  0.24595629  0.58761696  0.56060841  1
  C  C243  1  0.25360254  0.85963014  0.58359325  1
  C  C244  1  0.26547532  0.88534216  0.52835527  1
  O  O245  1  0.12952515  0.63333734  0.51971386  1
  C  C246  1  0.11542610  0.71859323  0.59266104  1
  H  H247  1  0.32974488  0.88914623  0.57423165  1
  O  O248  1  0.37247050  0.71453680  0.55482445  1
  C  C249  1  0.09270628  0.88495233  0.61252934  1
  C  C250  1  0.18988131  0.91973446  0.59943952  1
  N  N251  1  0.36069912  0.84147865  0.52028559  1
  H  H252  1  0.08153009  0.63656745  0.59022601  1
  Cu  Cu253  1  0.41656066  0.69022831  0.52644469  1
  C  C254  1  0.07097048  0.72047687  0.51936604  1
  C  C255  1  0.05523573  0.77997506  0.60848788  1
  Cu  Cu256  1  0.11895362  0.52205820  0.54325865  1
  C  C257  1  0.40790195  0.91676996  0.50719108  1
  O  O258  1  0.02112185  0.74714993  0.53637240  1
  H  H259  1  0.01637858  0.98958036  0.57593583  1
  H  H260  1  0.00200564  0.91693811  0.51480757  1
  C  C261  1  0.22065423  0.99443228  0.52600286  1
  H  H262  1  0.48668551  0.97799258  0.62429433  1
  N  N263  1  0.37492570  0.98913035  0.65806255  1
  C  C264  1  0.26282844  0.95735870  0.66188399  1
  C  C265  1  0.03443710  0.95047587  0.63226043  1
  H  H266  1  0.11079462  0.93041365  0.68641429  1
  N  N267  1  0.27074503  0.96912936  0.70212369  1
  O  O268  1  0.27403478  0.56535184  0.64908594  1
  H  H269  1  0.21748545  0.54933714  0.69152177  1
  C  C270  1  0.20732190  0.94742637  0.68327162  1
  Cu  Cu271  1  0.46285448  0.68830556  0.73577834  1
  H  H272  1  0.17927810  0.91614083  0.73821265  1
  H  H273  1  0.31457059  0.56929886  0.63401896  1
  H  H274  1  0.23192909  0.93523168  0.64528473  1
  O  O275  1  0.47504125  0.62654737  0.70651771  1
  C  C276  1  0.40609989  0.68183165  0.81874882  1
  C  C277  1  0.42687883  0.75844936  0.83549564  1
  C  C278  1  0.37177042  0.72156615  0.79702217  1
  C  C279  1  0.34236123  0.64922677  0.77789543  1
  C  C280  1  0.41697596  0.86908241  0.83177455  1
  C  C281  1  0.36264553  0.82862750  0.79270207  1
  H  H282  1  0.34444557  0.86456689  0.77558225  1
  H  H283  1  0.42369279  0.59716835  0.82162434  1
  C  C284  1  0.38688589  0.90759139  0.81001641  1
  C  C285  1  0.07022525  0.78307175  0.78731858  1
  H  H286  1  0.43233291  0.92415575  0.84623637  1
  C  C287  1  0.43952823  0.73458116  0.86084965  1
  O  O288  1  0.08021492  0.58819268  0.78438478  1
  O  O289  1  0.34082361  0.69022345  0.75846854  1
  C  C290  1  0.05097244  0.67320628  0.79722325  1
  C  C291  1  0.07366011  0.99008788  0.76746719  1
  C  C292  1  0.13909553  0.92114838  0.84541065  1
  H  H293  1  0.18739959  0.84657159  0.84722473  1
  H  H294  1  0.32182345  0.86856920  0.87035479  1
  C  C295  1  0.12119093  0.80356682  0.76504114  1
  C  C296  1  0.49920888  0.63974010  0.86827537  1
  C  C297  1  0.02689511  0.87335702  0.79935455  1
  O  O298  1  0.33554876  0.54954049  0.78077239  1
  C  C299  1  0.02703701  0.97662075  0.78988347  1
  O  O300  1  0.03295824  0.66446759  0.81683410  1
  H  H301  1  0.07158573  0.64134528  0.87180767  1
  C  C302  1  0.13091737  0.90463963  0.75466258  1
  H  H303  1  0.15061467  0.73165919  0.75465888  1
  Cu  Cu304  1  0.20425597  0.50364249  0.79409807  1
  N  N305  1  0.03115916  0.90520009  0.85087600  1
  C  C306  1  0.38568168  0.80759951  0.87661873  1
  H  H307  1  0.08344404  0.53358728  0.91631268  1
  H  H308  1  0.35313035  0.83643346  0.91258373  1
  C  C309  1  0.47727440  0.70097776  0.90702465  1
  H  H310  1  0.11471779  0.99830682  0.97933751  1
  H  H311  1  0.25531484  0.63371655  0.98469207  1
  C  C312  1  0.05906334  0.83859956  0.91372205  1
  N  N313  1  0.07215450  0.85231801  0.98751906  1
  N  N314  1  0.30629461  0.78798536  0.97941051  1
  C  C315  1  0.10633846  0.75003557  0.98628146  1
  H  H316  1  0.00532749  0.91127901  0.95379193  1
  O  O317  1  0.44372430  0.74504953  0.94462568  1
  H  H318  1  0.34445588  0.93618820  0.97375730  1
  H  H319  1  0.25960751  0.65691994  0.93436654  1
  C  C320  1  0.14007018  0.78674330  0.92863485  1
  H  H321  1  0.15810141  0.82742903  0.94467640  1
  H  H322  1  0.02832514  0.69696948  0.98823722  1
  C  C323  1  0.19807446  0.69388949  0.92310873  1
  C  C324  1  0.15280056  0.92101467  0.98116928  1
  C  C325  1  0.02984585  0.78399101  0.89268195  1
  C  C326  1  0.08450493  0.68749318  0.88741247  1
  C  C327  1  0.16794174  0.64571134  0.90221191  1
  C  C328  1  0.40218500  0.78637252  0.89980534  1
  C  C329  1  0.26870568  0.88868258  0.97661646  1
  C  C330  1  0.23664116  0.54853533  0.89490839  1
  C  C331  1  0.22486843  0.71801256  0.98352352  1
  C  C332  1  0.01129260  0.95155802  0.91721321  1
  C  C333  1  0.49635473  0.68021013  0.93129827  1
  Cu  Cu334  1  0.48691376  0.77840691  0.97407102  1
  O  O335  1  0.30480429  0.51003835  0.90918790  1
  O  O336  1  0.93682283  0.32445080  0.04145642  1
  O  O337  1  0.91195916  0.15613536  0.05439733  1
  C  C338  1  0.92724046  0.22449832  0.03836148  1
  H  H339  1  0.73984810  0.32339112  0.01071785  1
  C  C340  1  0.60798771  0.23034330  0.10853878  1
  H  H341  1  0.61008989  0.17157759  0.09438880  1
  H  H342  1  0.69770761  0.05545249  0.06225140  1
  C  C343  1  0.94634279  0.19012234  0.01513354  1
  Cu  Cu344  1  0.84643242  0.40591113  0.05995481  1
  C  C345  1  0.92657801  0.08046321  0.01032943  1
  C  C346  1  0.87183655  0.02195448  0.11916373  1
  H  H347  1  0.89979999  0.03039239  0.02469876  1
  O  O348  1  0.57185707  0.45448844  0.06032806  1
  O  O349  1  0.73858568  0.46306006  0.08045684  1
  O  O350  1  0.99638535  0.29433927  0.09017421  1
  H  H351  1  0.50592243  0.24958146  0.06468034  1
  C  C352  1  0.51629694  0.30676683  0.11112470  1
  C  C353  1  0.62830820  0.47822315  0.07763164  1
  H  H354  1  0.77816703  0.18142276  0.12052584  1
  C  C355  1  0.70166336  0.23642076  0.12331643  1
  O  O356  1  0.63824318  0.49667133  0.01614881  1
  C  C357  1  0.88869558  0.05742712  0.20493089  1
  H  H358  1  0.79623498  0.03566939  0.20824484  1
  O  O359  1  0.91105718  0.27956993  0.14870663  1
  H  H360  1  0.65342038  0.21791966  0.20930521  1
  C  C361  1  0.50556954  0.37947505  0.13033803  1
  C  C362  1  0.58144855  0.07721633  0.23935001  1
  H  H363  1  0.86248168  0.21531794  0.21985985  1
  C  C364  1  0.71181354  0.00586983  0.14545695  1
  C  C365  1  0.65118033  0.13662362  0.20211314  1
  H  H366  1  0.72714791  0.18053367  0.16823760  1
  C  C367  1  0.83200577  0.03184577  0.14170687  1
  C  C368  1  0.66976798  0.01297084  0.17092021  1
  C  C369  1  0.61762571  0.04747546  0.21594666  1
  O  O370  1  0.58326082  0.16962179  0.24501151  1
  C  C371  1  0.70447839  0.31560816  0.14103956  1
  C  C372  1  0.60468432  0.38412765  0.14461982  1
  C  C373  1  0.81554961  0.33356354  0.15412387  1
  H  H374  1  0.60956539  0.43672728  0.16016773  1
  O  O375  1  0.81672020  0.39626096  0.16981043  1
  C  C376  1  0.68414960  0.12061161  0.17916601  1
  H  H377  1  0.89164035  0.05610961  0.15554473  1
  C  C378  1  0.92856791  0.15716251  0.21208196  1
  C  C379  1  0.86667824  0.39285566  0.32705835  1
  C  C380  1  0.81994783  0.37084614  0.34883078  1
  H  H381  1  0.80497359  0.28907904  0.35522575  1
  H  H382  1  0.89391837  0.32161687  0.31577903  1
  O  O383  1  0.81018571  0.12643653  0.29629928  1
  C  C384  1  0.76014060  0.09050660  0.31264117  1
  C  C385  1  0.81751086  0.08147195  0.33592777  1
  O  O386  1  0.65404722  0.04526767  0.31090452  1
  C  C387  1  0.75637024  0.05361438  0.35669539  1
  Cu  Cu388  1  0.60150696  0.00265867  0.28365892  1
  C  C389  1  0.78384485  0.46015013  0.36154900  1
  H  H390  1  0.66353165  0.03668700  0.35452319  1
  O  O391  1  0.95222249  0.44542870  0.28361949  1
  C  C392  1  0.93515657  0.11035921  0.33749692  1
  C  C393  1  0.99550177  0.09789028  0.35874610  1
  C  C394  1  0.86003175  0.49611144  0.31802087  1
  H  H395  1  0.90397433  0.19732928  0.26939751  1
  Cu  Cu396  1  0.98154744  0.41124323  0.25373731  1
  C  C397  1  0.56719333  0.44548068  0.29736627  1
  H  H398  1  0.98514544  0.12751448  0.32188978  1
  C  C399  1  0.57890087  0.48278760  0.25403720  1
  N  N400  1  0.50558309  0.38027753  0.28452809  1
  C  C401  1  0.50481683  0.40437553  0.26229226  1
  H  H402  1  0.56083472  0.42246578  0.31566257  1
  C  C403  1  0.99192101  0.41282776  0.48650931  1
  H  H404  1  0.99883016  0.03477701  0.47973680  1
  H  H405  1  0.64575657  0.43504620  0.44978351  1
  C  C406  1  0.61019654  0.02756122  0.41727959  1
  H  H407  1  0.56881963  0.47608155  0.37854381  1
  H  H408  1  0.92484074  0.42490644  0.39963816  1
  C  C409  1  0.81056394  0.05633299  0.37814036  1
  C  C410  1  0.88622246  0.47311572  0.48660559  1
  H  H411  1  0.68091410  0.27619370  0.41061359  1
  C  C412  1  0.69625399  0.19311706  0.41715741  1
  C  C413  1  0.75318503  0.44769012  0.38657291  1
  H  H414  1  0.75766035  0.04842255  0.39383596  1
  C  C415  1  0.82730968  0.48465670  0.46636506  1
  C  C416  1  0.87479722  0.42523311  0.44698155  1
  C  C417  1  0.75986443  0.15916799  0.43654383  1
  N  N418  1  0.61346146  0.12552802  0.40942794  1
  C  C419  1  0.97988913  0.36284424  0.44631131  1
  C  C420  1  0.93329348  0.07114251  0.37905186  1
  C  C421  1  0.79468976  0.42648531  0.42683856  1
  C  C422  1  0.83436412  0.43629985  0.40432811  1
  C  C423  1  0.67375738  0.44105055  0.43169388  1
  H  H424  1  0.81908362  0.21601688  0.44749230  1
  C  C425  1  0.59854971  0.46748636  0.41421850  1
  N  N426  1  0.74971334  0.06372783  0.44665551  1
  C  C427  1  0.63355483  0.46876754  0.39160950  1
  C  C428  1  0.56166705  0.16863195  0.59035643  1
  H  H429  1  0.71996230  0.27805271  0.55997237  1
  C  C430  1  0.78371085  0.15797963  0.58553088  1
  C  C431  1  0.67639046  0.16540987  0.60015133  1
  C  C432  1  0.79054087  0.21866603  0.56421629  1
  C  C433  1  0.88390987  0.20258369  0.54958060  1
  H  H434  1  0.88867483  0.24224827  0.53294858  1
  H  H435  1  0.54219267  0.14432876  0.57152889  1
  C  C436  1  0.55799651  0.36674143  0.55975733  1
  C  C437  1  0.86954506  0.07648121  0.59009209  1
  C  C438  1  0.95500429  0.05699545  0.57398128  1
  C  C439  1  0.96277203  0.11803830  0.55391743  1
  H  H440  1  0.89587822  0.44141268  0.55783982  1
  C  C441  1  0.65241091  0.44267227  0.55654192  1
  C  C442  1  0.92799974  0.48402797  0.59241173  1
  C  C443  1  0.85341780  0.46318899  0.57402474  1
  C  C444  1  0.59262889  0.46790736  0.51712750  1
  C  C445  1  0.50732187  0.38873886  0.52081445  1
  H  H446  1  0.55300116  0.32555622  0.57617981  1
  C  C447  1  0.69386734  0.17825661  0.62381363  1
  C  C448  1  0.73042250  0.47054683  0.57672500  1
  C  C449  1  0.66615333  0.49372237  0.53539632  1
  H  H450  1  0.86930170  0.03270369  0.60695016  1
  C  C451  1  0.98920771  0.29326246  0.73747769  1
  H  H452  1  0.52418602  0.03542906  0.67405555  1
  H  H453  1  0.71285139  0.00578874  0.63877071  1
  O  O454  1  0.65089977  0.13165706  0.74464939  1
  O  O455  1  0.54156522  0.46644257  0.71693275  1
  C  C456  1  0.68139292  0.15160729  0.69970796  1
  O  O457  1  0.97100002  0.30156818  0.65837848  1
  C  C458  1  0.60069844  0.20407874  0.66335288  1
  H  H459  1  0.75041018  0.12306211  0.71131752  1
  H  H460  1  0.95985278  0.37117099  0.73137240  1
  C  C461  1  0.69369636  0.15016024  0.67590359  1
  C  C462  1  0.65581337  0.44591850  0.67303183  1
  H  H463  1  0.95822767  0.00934340  0.71297650  1
  C  C464  1  0.99124525  0.12300364  0.64659246  1
  H  H465  1  0.65412757  0.37238896  0.68354663  1
  C  C466  1  0.59503644  0.19492793  0.63717253  1
  C  C467  1  0.71962119  0.45195337  0.65236386  1
  C  C468  1  0.94231701  0.07500447  0.66603007  1
  H  H469  1  0.77680725  0.38563318  0.64651947  1
  H  H470  1  0.78659843  0.17194561  0.63122877  1
  Cu  Cu471  1  0.66484503  0.43131809  0.73757032  1
  C  C472  1  0.56689581  0.19170382  0.73488258  1
  H  H473  1  0.76413806  0.10954320  0.66715578  1
  H  H474  1  0.91694951  0.12455205  0.68084970  1
  C  C475  1  0.57823968  0.19528776  0.70975229  1
  C  C476  1  0.50253517  0.25238221  0.67414035  1
  Cu  Cu477  1  0.68707018  0.10559215  0.77529648  1
  H  H478  1  0.76409949  0.16984507  0.84191892  1
  C  C479  1  0.73440495  0.09240416  0.85009193  1
  O  O480  1  0.75838708  0.24727952  0.77772587  1
  C  C481  1  0.60309820  0.40220285  0.81446219  1
  C  C482  1  0.63688238  0.41935345  0.85767066  1
  H  H483  1  0.90253988  0.11246064  0.77974298  1
  O  O484  1  0.74047650  0.05101322  0.80072341  1
  C  C485  1  0.81803822  0.29790349  0.76338456  1
  C  C486  1  0.61655695  0.45917934  0.79406158  1
  C  C487  1  0.65699025  0.45488324  0.83315277  1
  H  H488  1  0.57307197  0.42599839  0.77931545  1
  C  C489  1  0.95027341  0.14790172  0.76468641  1
  H  H490  1  0.54702611  0.32848483  0.81634270  1
  C  C491  1  0.52822413  0.38380803  0.86465181  1
  H  H492  1  0.93761894  0.16337025  0.84108188  1
  C  C493  1  0.99837789  0.09119768  0.84237111  1
  H  H494  1  0.81755400  0.43981509  0.86529334  1
  C  C495  1  0.73219538  0.42107662  0.87284515  1
  C  C496  1  0.73169980  0.08855508  0.87363070  1
  H  H497  1  0.52512708  0.04072660  0.83396630  1
  H  H498  1  0.99381262  0.04447524  0.79980108  1
  C  C499  1  0.69177162  0.00289956  0.83817699  1
  O  O500  1  0.78676284  0.38992242  0.75541404  1
  C  C501  1  0.92154865  0.24326385  0.75394152  1
  C  C502  1  0.99035426  0.14352114  0.90675677  1
  C  C503  1  0.99762555  0.49776613  0.92117082  1
  C  C504  1  0.97401366  0.17253121  0.92963564  1
  O  O505  1  0.91917927  0.26444759  0.87785059  1
  C  C506  1  0.96128596  0.11764553  0.97049587  1
  H  H507  1  0.50495537  0.23134734  0.93915148  1
  C  C508  1  0.65306689  0.18132288  0.96180680  1
  C  C509  1  0.79160977  0.40029495  0.93876769  1
  C  C510  1  0.55511875  0.35524459  0.96457192  1
  C  C511  1  0.93592802  0.04418095  0.98826047  1
  C  C512  1  0.61896664  0.37596761  0.98495231  1
  C  C513  1  0.71650335  0.20688286  0.98173328  1
  C  C514  1  0.70260584  0.30508830  0.99322232  1
  H  H515  1  0.91653572  0.48256422  0.88744599  1
  H  H516  1  0.75635992  0.16014122  0.88388059  1
  C  C517  1  0.88553067  0.41743015  0.95384764  1
  C  C518  1  0.60249137  0.35973770  0.90326160  1
  H  H519  1  0.64743651  0.15610953  0.91589567  1
  C  C520  1  0.98479424  0.47005888  0.94436889  1
  C  C521  1  0.50878178  0.34760757  0.88711269  1
  C  C522  1  0.67470785  0.08201743  0.92392303  1
  C  C523  1  0.71134898  0.40100213  0.89649421  1
  C  C524  1  0.90802706  0.47339174  0.90607140  1
  C  C525  1  0.80456103  0.42028148  0.91447528  1
  H  H526  1  0.58376412  0.33347389  0.92106262  1
  H  H527  1  0.78522263  0.15296001  0.98824155  1
  C  C528  1  0.59581546  0.47558519  0.99652694  1
  C  C529  1  0.56317463  0.25646777  0.95390354  1
  C  C530  1  0.68425395  0.08164348  0.94778234  1
  C  C531  1  0.98017423  0.26378786  0.99794480  1
  H  H532  1  0.88767080  0.38920611  0.97229763  1
  H  H533  1  0.72044566  0.35172779  0.94510198  1
  C  C534  1  0.97317771  0.08679933  0.94572937  1
  C  C535  1  0.98715297  0.22934177  0.97600462  1
  H  H536  1  0.95754150  0.25510534  0.93528347  1
  C  C537  1  0.99518961  0.24479584  0.89094681  1
  H  H538  1  0.71925272  0.00079181  0.98040898  1
  C  C539  1  0.65374348  0.59808998  0.11160311  1
  H  H540  1  0.77508726  0.79735889  0.08522271  1
  C  C541  1  0.82731501  0.74467325  0.09650414  1
  C  C542  1  0.89870673  0.65634765  0.09006361  1
  C  C543  1  0.82982567  0.76049914  0.12023088  1
  C  C544  1  0.89758814  0.63063083  0.06439587  1
  C  C545  1  0.54272991  0.83334874  0.04446009  1
  C  C546  1  0.58185167  0.55094336  0.09480504  1
  O  O547  1  0.92907829  0.53310074  0.05870995  1
  O  O548  1  0.86684306  0.69646111  0.05080610  1
  H  H549  1  0.75146285  0.58542692  0.11179949  1
  C  C550  1  0.59989334  0.93544117  0.04236218  1
  C  C551  1  0.62086385  0.92685386  0.08350416  1
  H  H552  1  0.57106085  0.77752989  0.10155435  1
  C  C553  1  0.96829770  0.59203800  0.10418563  1
  O  O554  1  0.52813924  0.82197572  0.00477182  1
  C  C555  1  0.56681748  0.82325848  0.08553732  1
  C  C556  1  0.50513528  0.77720597  0.02330260  1
  Cu  Cu557  1  0.52708140  0.55954128  0.03861470  1
  C  C558  1  0.53164991  0.77630550  0.06523918  1
  H  H559  1  0.61465321  0.97023687  0.02576216  1
  H  H560  1  0.84391051  0.97652158  0.08335120  1
  H  H561  1  0.50331557  0.68960968  0.06538651  1
  C  C562  1  0.64110991  0.98201377  0.06239775  1
  C  C563  1  0.68650744  0.96683139  0.10455992  1
  C  C564  1  0.80343297  0.99535786  0.10000826  1
  C  C565  1  0.96409336  0.98026054  0.19597941  1
  H  H566  1  0.78063011  0.83203110  0.12605113  1
  C  C567  1  0.92286155  0.86840296  0.18899887  1
  C  C568  1  0.59895475  0.65226530  0.12970454  1
  H  H569  1  0.54859137  0.95213648  0.13154166  1
  H  H570  1  0.82545853  0.85410448  0.22147075  1
  O  O571  1  0.67709724  0.57908875  0.20808320  1
  H  H572  1  0.64993973  0.67888195  0.14360710  1
  C  C573  1  0.60849178  0.94267864  0.20708847  1
  C  C574  1  0.71710090  0.66376224  0.21324715  1
  H  H575  1  0.76993791  0.60166796  0.17043507  1
  H  H576  1  0.61867620  0.84080826  0.17752870  1
  C  C577  1  0.97533862  0.61130062  0.12770533  1
  C  C578  1  0.63588577  0.92169988  0.18425350  1
  C  C579  1  0.79421420  0.72526777  0.19696227  1
  C  C580  1  0.88748649  0.73099023  0.16071437  1
  C  C581  1  0.64169586  0.97537022  0.12755953  1
  C  C582  1  0.94858097  0.83007379  0.16672908  1
  C  C583  1  0.81514354  0.67499895  0.17566989  1
  H  H584  1  0.59803458  0.51444583  0.23608870  1
  C  C585  1  0.90026897  0.69630645  0.13522013  1
  C  C586  1  0.85058960  0.81551278  0.20533646  1
  H  H587  1  0.56625906  0.88434353  0.21959581  1
  O  O588  1  0.70620184  0.70347302  0.23385882  1
  C  C589  1  0.78807900  0.83205229  0.30884910  1
  C  C590  1  0.73986536  0.82242266  0.28590269  1
  C  C591  1  0.91041628  0.82327530  0.31155076  1
  C  C592  1  0.70457005  0.84283233  0.32628682  1
  C  C593  1  0.74568832  0.82925730  0.34812609  1
  C  C594  1  0.86957351  0.81051950  0.35215561  1
  O  O595  1  0.80458023  0.79411022  0.26892847  1
  H  H596  1  0.60946045  0.85819267  0.32399189  1
  Cu  Cu597  1  0.79287152  0.65443305  0.25864980  1
  H  H598  1  0.81939242  0.66822667  0.32443535  1
  H  H599  1  0.74094573  0.63300450  0.36429087  1
  O  O600  1  0.88257637  0.60934745  0.28601222  1
  H  H601  1  0.68562541  0.82334220  0.36261975  1
  C  C602  1  0.81416141  0.58584403  0.33095667  1
  N  N603  1  0.64759854  0.54812952  0.26638598  1
  C  C604  1  0.94894360  0.80470903  0.33378843  1
  H  H605  1  0.97482092  0.81022698  0.29731238  1
  H  H606  1  0.69492404  0.57711342  0.29894177  1
  O  O607  1  0.63477592  0.85061738  0.28382000  1
  C  C608  1  0.77847492  0.56917629  0.35357526  1
  C  C609  1  0.64309544  0.52335432  0.28834580  1
  C  C610  1  0.90170779  0.51858273  0.29517010  1
  O  O611  1  0.55605782  0.99538785  0.25271022  1
  H  H612  1  0.93352036  0.91158330  0.41272551  1
  C  C613  1  0.67376900  0.99800937  0.43710532  1
  H  H614  1  0.75458940  0.54389873  0.46512245  1
  C  C615  1  0.64561350  0.72111549  0.47595067  1
  C  C616  1  0.58534137  0.70289671  0.45519701  1
  H  H617  1  0.59622055  0.69756709  0.41794642  1
  H  H618  1  0.92328042  0.76544186  0.45844179  1
  H  H619  1  0.67003414  0.92311312  0.44660983  1
  O  O620  1  0.51965054  0.85107736  0.39276269  1
  C  C621  1  0.76528591  0.74463592  0.47703497  1
  C  C622  1  0.81802031  0.77214098  0.39365790  1
  H  H623  1  0.80573239  0.76765162  0.49345477  1
  C  C624  1  0.84900804  0.72965982  0.41583587  1
  C  C625  1  0.64233173  0.71134049  0.43394257  1
  C  C626  1  0.90312223  0.78181804  0.37598734  1
  H  H627  1  0.72799817  0.78490462  0.38943130  1
  H  H628  1  0.54074903  0.98377340  0.40739834  1
  C  C629  1  0.76797173  0.73137915  0.43586851  1
  C  C630  1  0.82703925  0.74659324  0.45727601  1
  C  C631  1  0.96386704  0.69074362  0.41966162  1
  O  O632  1  0.51454053  0.69447922  0.37573633  1
  C  C633  1  0.99763518  0.97973827  0.41571022  1
  H  H634  1  0.99475529  0.66044015  0.43648647  1
  C  C635  1  0.58775158  0.70257110  0.49871388  1
  O  O636  1  0.63755104  0.71304135  0.51663264  1
  N  N637  1  0.75146215  0.86198976  0.62221822  1
  C  C638  1  0.71328675  0.78944648  0.60750838  1
  H  H639  1  0.78751046  0.73990788  0.60212478  1
  C  C640  1  0.59695316  0.78424079  0.59893944  1
  H  H641  1  0.73678150  0.55220028  0.53270915  1
  H  H642  1  0.98132463  0.74186813  0.61810020  1
  H  H643  1  0.56128660  0.72497212  0.58625861  1
  H  H644  1  0.58270298  0.51810453  0.60036085  1
  C  C645  1  0.67932313  0.50322100  0.59689208  1
  N  N646  1  0.51447086  0.84998115  0.60611654  1
  C  C647  1  0.75964546  0.52839522  0.61452028  1
  C  C648  1  0.55790761  0.92813266  0.61942636  1
  C  C649  1  0.88109964  0.51355340  0.61294907  1
  H  H650  1  0.85390566  0.52343855  0.50175638  1
  H  H651  1  0.60438752  0.50460503  0.50084277  1
  H  H652  1  0.51535592  0.69071998  0.66876937  1
  C  C653  1  0.67231657  0.93742405  0.62812656  1
  C  C654  1  0.70430482  0.54324506  0.63787357  1
  C  C655  1  0.74299868  0.86913204  0.68184824  1
  C  C656  1  0.53563981  0.54391056  0.70283683  1
  C  C657  1  0.92083867  0.96527739  0.66618807  1
  C  C658  1  0.98084798  0.89475959  0.65041698  1
  C  C659  1  0.60924991  0.86636947  0.73936612  1
  C  C660  1  0.80181934  0.93876084  0.72649022  1
  H  H661  1  0.72555740  0.83452119  0.66517783  1
  C  C662  1  0.62869952  0.63339799  0.64408291  1
  C  C663  1  0.57704413  0.62297722  0.66493746  1
  C  C664  1  0.88251418  0.95790428  0.70946991  1
  O  O665  1  0.50889983  0.82949450  0.73386305  1
  H  H666  1  0.56420088  0.82909574  0.69494045  1
  C  C667  1  0.85511378  0.92056149  0.68686423  1
  C  C668  1  0.65602794  0.85969055  0.69868601  1
  H  H669  1  0.63514742  0.70855357  0.63470851  1
  H  H670  1  0.82663443  0.96361061  0.74403307  1
  H  H671  1  0.98665163  0.80472621  0.65248198  1
  C  C672  1  0.59135801  0.53345131  0.68049454  1
  C  C673  1  0.69500482  0.88487557  0.72145968  1
  H  H674  1  0.94210179  0.52187643  0.62724541  1
  C  C675  1  0.69614188  0.59852787  0.76866890  1
  C  C676  1  0.74544604  0.59894916  0.81029028  1
  H  H677  1  0.79649887  0.67036541  0.80874357  1
  O  O678  1  0.75034862  0.68299088  0.76605662  1
  Cu  Cu679  1  0.69954254  0.80866485  0.78361025  1
  C  C680  1  0.64972146  0.90829304  0.85004066  1
  H  H681  1  0.60396043  0.85022195  0.83990386  1
  O  O682  1  0.64610063  0.89848817  0.80447836  1
  O  O683  1  0.63655960  0.89480317  0.75961322  1
  O  O684  1  0.63134664  0.55571808  0.75269273  1
  C  C685  1  0.68726360  0.55256385  0.79136329  1
  H  H686  1  0.77648425  0.57852457  0.84611182  1
  H  H687  1  0.51564511  0.58198139  0.85539257  1
  C  C688  1  0.73289258  0.54658017  0.83055182  1
  C  C689  1  0.65593091  0.90273192  0.87383743  1
  C  C690  1  0.69089855  0.98283301  0.81386786  1
  H  H691  1  0.99412266  0.86190012  0.81688482  1
  C  C692  1  0.96039527  0.98655245  0.84902945  1
  H  H693  1  0.87313942  0.96830175  0.85496758  1
  H  H694  1  0.56797536  0.55133973  0.89793195  1
  C  C695  1  0.98759659  0.97261544  0.94052418  1
  H  H696  1  0.74332550  0.82010868  0.91554731  1
  C  C697  1  0.69943439  0.99056583  0.91177690  1
  C  C698  1  0.73131963  0.89958051  0.92452064  1
  C  C699  1  0.71868633  0.99630187  0.96100979  1
  O  O700  1  0.54024680  0.54323470  0.98390098  1
  O  O701  1  0.81284147  0.81002853  0.98174533  1
  H  H702  1  0.96340397  0.82366995  0.88079621  1
  O  O703  1  0.55686261  0.60194775  0.93827127  1
  H  H704  1  0.92975560  0.95854436  0.98413892  1
  H  H705  1  0.62475936  0.82934079  0.88315544  1
  O  O706  1  0.76081283  0.70695399  0.95306361  1
  C  C707  1  0.77788795  0.80728271  0.96223307  1
  Cu  Cu708  1  0.64739457  0.62593450  0.96672207  1
  C  C709  1  0.52485542  0.62709110  0.89136218  1
  C  C710  1  0.69930651  0.99392015  0.88615613  1
  C  C711  1  0.74758317  0.90466045  0.94779416  1
