# generated using pymatgen
data_ZnH3(C3O2)3
_symmetry_space_group_name_H-M   'P 1'
_cell_length_a   17.20153453
_cell_length_b   18.57910315
_cell_length_c   16.22656468
_cell_angle_alpha   90.00000000
_cell_angle_beta   90.00000000
_cell_angle_gamma   90.00000000
_symmetry_Int_Tables_number   1
_chemical_formula_structural   ZnH3(C3O2)3
_chemical_formula_sum   'Zn16 H48 C144 O96'
_cell_volume   5185.83295059
_cell_formula_units_Z   16
loop_
 _symmetry_equiv_pos_site_id
 _symmetry_equiv_pos_as_xyz
  1  'x, y, z'
loop_
 _atom_site_type_symbol
 _atom_site_label
 _atom_site_symmetry_multiplicity
 _atom_site_fract_x
 _atom_site_fract_y
 _atom_site_fract_z
 _atom_site_occupancy
  C  C0  1  0.24365433  0.19575216  0.15468118  1
  C  C1  1  0.24763901  0.08196314  0.08542240  1
  H  H2  1  0.40137768  0.18002170  0.17079923  1
  O  O3  1  0.17369328  0.20491363  0.13249867  1
  C  C4  1  0.36974174  0.01948673  0.06859802  1
  C  C5  1  0.22889773  0.39414988  0.04632983  1
  O  O6  1  0.16665427  0.36355204  0.05934214  1
  O  O7  1  0.29360699  0.37079758  0.07706180  1
  C  C8  1  0.28839343  0.02038907  0.06174140  1
  Zn  Zn9  1  0.34013423  0.34833588  0.18964442  1
  C  C10  1  0.41155354  0.07550856  0.10507394  1
  H  H11  1  0.18581906  0.08785100  0.07412944  1
  C  C12  1  0.37316274  0.13598352  0.13552286  1
  C  C13  1  0.29233791  0.13411876  0.12441056  1
  O  O14  1  0.27972009  0.23723543  0.20064065  1
  O  O15  1  0.45409053  0.28871629  0.18980177  1
  O  O16  1  0.38821156  0.47104673  0.19703802  1
  O  O17  1  0.11890440  0.49133268  0.21108501  1
  Zn  Zn18  1  0.14223072  0.24843396  0.01523008  1
  H  H19  1  0.36061800  0.47281404  0.01770047  1
  C  C20  1  0.49965214  0.06881103  0.10705556  1
  C  C21  1  0.24529948  0.38497300  0.35788134  1
  C  C22  1  0.18162619  0.33784492  0.39065429  1
  C  C23  1  0.18674191  0.26255483  0.38033123  1
  O  O24  1  0.18604831  0.10175164  0.35867778  1
  H  H25  1  0.24453517  0.24578116  0.35110578  1
  O  O26  1  0.23948112  0.45143701  0.36231224  1
  C  C27  1  0.05849724  0.24138781  0.43507235  1
  C  C28  1  0.12872511  0.21545346  0.40208786  1
  C  C29  1  0.11004465  0.36338026  0.42031011  1
  H  H30  1  0.09760820  0.42077187  0.42557704  1
  C  C31  1  0.13586744  0.13330597  0.39559053  1
  O  O32  1  0.30086454  0.35633865  0.32161940  1
  C  C33  1  0.05128699  0.31440071  0.44045166  1
  O  O34  1  0.08022684  0.09791162  0.43113761  1
  H  H35  1  0.00790714  0.20740193  0.45220275  1
  Zn  Zn36  1  0.01776148  0.01670257  0.38202572  1
  H  H37  1  0.23595756  0.08262524  0.69250153  1
  C  C38  1  0.08126168  0.08159170  0.69990680  1
  O  O39  1  0.00795487  0.06716664  0.70204361  1
  O  O40  1  0.10934475  0.14020627  0.69272273  1
  C  C41  1  0.21265032  0.02689380  0.69435626  1
  O  O42  1  0.38640545  0.03080296  0.70221492  1
  C  C43  1  0.13301266  0.01624195  0.70136127  1
  H  H44  1  0.35841934  0.30171487  0.97803296  1
  C  C45  1  0.47983593  0.26462567  0.95461888  1
  C  C46  1  0.36920039  0.19637586  0.92378673  1
  H  H47  1  0.37862161  0.09669642  0.86114819  1
  O  O48  1  0.03832835  0.21026147  0.95526377  1
  C  C49  1  0.40017004  0.25836132  0.95759247  1
  C  C50  1  0.41152383  0.13882649  0.88849512  1
  O  O51  1  0.25172740  0.13155905  0.89625159  1
  O  O52  1  0.24322780  0.24314868  0.94161863  1
  C  C53  1  0.28192300  0.18742680  0.91734735  1
  O  O54  1  0.47792386  0.39011458  0.99273656  1
  O  O55  1  0.04085196  0.32221853  0.91982390  1
  C  C56  1  0.16975436  0.48725892  0.95133264  1
  C  C57  1  0.49116975  0.14213506  0.89277253  1
  C  C58  1  0.30809440  0.48975434  0.98308845  1
  H  H59  1  0.10958165  0.46856135  0.96404353  1
  C  C60  1  0.23412585  0.45770000  0.99503168  1
  C  C61  1  0.01207840  0.26129080  0.90970610  1
  Zn  Zn62  1  0.30644300  0.81216291  0.00600227  1
  C  C63  1  0.40154130  0.59938016  0.20277804  1
  C  C64  1  0.37562280  0.80309176  0.18772457  1
  C  C65  1  0.36741473  0.66731406  0.18879100  1
  O  O66  1  0.46964995  0.87048634  0.03033763  1
  C  C67  1  0.35911331  0.53207729  0.18413192  1
  H  H68  1  0.18482370  0.58277339  0.10353611  1
  O  O69  1  0.28700731  0.53779910  0.17033076  1
  O  O70  1  0.40729717  0.85857343  0.21540901  1
  C  C71  1  0.05269894  0.58066695  0.12436515  1
  C  C72  1  0.12293972  0.60591118  0.09143091  1
  H  H73  1  0.30371936  0.66631090  0.17052935  1
  C  C74  1  0.12121187  0.66550835  0.03893683  1
  C  C75  1  0.40772293  0.73177938  0.20719831  1
  O  O76  1  0.31539642  0.80572404  0.14164048  1
  C  C77  1  0.05518581  0.52039397  0.18568085  1
  H  H78  1  0.40118331  0.97467096  0.04063129  1
  O  O79  1  0.25603695  0.66661369  0.03355364  1
  C  C80  1  0.19739295  0.69618150  0.01198314  1
  C  C81  1  0.05100292  0.69224768  0.00685219  1
  C  C82  1  0.47571826  0.59418259  0.23969046  1
  C  C83  1  0.48518353  0.72815023  0.23747782  1
  O  O84  1  0.17729835  0.96990030  0.00659522  1
  C  C85  1  0.24712395  0.96377829  0.01057730  1
  O  O86  1  0.23144300  0.72886180  0.34953213  1
  H  H87  1  0.04849789  0.59485655  0.36532446  1
  O  O88  1  0.18957980  0.61993378  0.37345135  1
  H  H89  1  0.12530530  0.82197377  0.33947733  1
  C  C90  1  0.17869667  0.68702727  0.35922803  1
  Zn  Zn91  1  0.20559834  0.54288068  0.27836512  1
  C  C92  1  0.07970873  0.78063655  0.33954053  1
  C  C93  1  0.09264312  0.70729823  0.34757412  1
  C  C94  1  0.03681337  0.65293871  0.34843948  1
  O  O95  1  0.44933326  0.59413454  0.45691918  1
  O  O96  1  0.03644492  0.92118408  0.32358437  1
  C  C97  1  0.00200286  0.79340151  0.32248567  1
  O  O98  1  0.04968764  0.80411996  0.74141317  1
  C  C99  1  0.14929743  0.89471292  0.71157403  1
  O  O100  1  0.39570730  0.58912296  0.57499695  1
  O  O101  1  0.39408193  0.91598235  0.70495745  1
  H  H102  1  0.03113201  0.94048925  0.71600729  1
  O  O103  1  0.07183951  0.64610546  0.60776926  1
  H  H104  1  0.08900206  0.77695474  0.56107550  1
  C  C105  1  0.23073541  0.90036179  0.70195422  1
  C  C106  1  0.26416246  0.96850693  0.69161589  1
  C  C107  1  0.11899510  0.81804466  0.72362188  1
  C  C108  1  0.35283029  0.97349037  0.69901112  1
  C  C109  1  0.45312028  0.58249536  0.53161512  1
  C  C110  1  0.02737020  0.77537618  0.53734048  1
  C  C111  1  0.09691814  0.95020259  0.71062125  1
  C  C112  1  0.03431522  0.91040997  0.51971069  1
  H  H113  1  0.26240996  0.84834820  0.70776209  1
  Zn  Zn114  1  0.04925868  0.68276043  0.72951522  1
  O  O115  1  0.16307393  0.76650781  0.71556191  1
  O  O116  1  0.10209408  0.91322477  0.53198097  1
  C  C117  1  0.01627692  0.64096383  0.55580370  1
  H  H118  1  0.48173668  0.55075819  0.69716593  1
  O  O119  1  0.45055452  0.56195793  0.96609694  1
  H  H120  1  0.26207015  0.62166891  0.84606030  1
  C  C121  1  0.39643418  0.58078166  0.91438603  1
  O  O122  1  0.41183268  0.62503847  0.86311353  1
  C  C123  1  0.25191805  0.57371360  0.88622948  1
  C  C124  1  0.17901499  0.54443202  0.90073571  1
  C  C125  1  0.10828312  0.58129159  0.86011097  1
  C  C126  1  0.31513232  0.54492879  0.92787871  1
  O  O127  1  0.04770047  0.55105571  0.86979663  1
  O  O128  1  0.10953648  0.64240856  0.83093605  1
  O  O129  1  0.28310998  0.91565215  0.96604194  1
  O  O130  1  0.42624856  0.77322388  0.97116435  1
  C  C131  1  0.48226794  0.81413428  0.99217468  1
  O  O132  1  0.20524187  0.75671747  0.96973190  1
  H  H133  1  0.06083423  0.73629121  0.96263977  1
  C  C134  1  0.57515280  0.39206056  0.17451792  1
  C  C135  1  0.64100343  0.43839601  0.17382827  1
  H  H136  1  0.52504522  0.39334820  0.13286423  1
  H  H137  1  0.82424063  0.18507140  0.17965909  1
  O  O138  1  0.53780297  0.11777258  0.13642029  1
  C  C139  1  0.83269897  0.35956199  0.03745834  1
  C  C140  1  0.70119742  0.43290374  0.23123706  1
  H  H141  1  0.75359351  0.46791667  0.22437198  1
  C  C142  1  0.86864364  0.29577481  0.16208009  1
  C  C143  1  0.86627297  0.35819301  0.11519834  1
  H  H144  1  0.89748599  0.40619020  0.13907376  1
  C  C145  1  0.82788381  0.23348869  0.13696781  1
  C  C146  1  0.79140367  0.23836238  0.06023784  1
  C  C147  1  0.91140933  0.28763127  0.24366784  1
  O  O148  1  0.75430225  0.11003241  0.03874006  1
  C  C149  1  0.64761223  0.49879654  0.11507647  1
  O  O150  1  0.52677385  0.00695604  0.09025294  1
  O  O151  1  0.85524423  0.48456376  0.01293138  1
  C  C152  1  0.57444444  0.33860360  0.23506011  1
  C  C153  1  0.79212765  0.29859537  0.00699347  1
  C  C154  1  0.75342705  0.17419692  0.01329177  1
  O  O155  1  0.99280830  0.49270711  0.20389621  1
  C  C156  1  0.50739433  0.28377182  0.24308709  1
  O  O157  1  0.76175856  0.33187510  0.41421348  1
  O  O158  1  0.96212577  0.41624272  0.44443434  1
  O  O159  1  0.81386016  0.42167045  0.34901871  1
  C  C160  1  0.76123904  0.37539473  0.35518543  1
  H  H161  1  0.62870601  0.29118858  0.34347896  1
  C  C162  1  0.84837484  0.04358313  0.44027471  1
  C  C163  1  0.97539641  0.35242594  0.46538174  1
  C  C164  1  0.69823813  0.37754761  0.28935312  1
  C  C165  1  0.63293310  0.33364317  0.29356918  1
  Zn  Zn166  1  0.94124741  0.44011052  0.31646744  1
  O  O167  1  0.90200003  0.23619942  0.28493937  1
  O  O168  1  0.89361837  0.04720379  0.37807813  1
  O  O169  1  0.50620017  0.24108577  0.29998231  1
  C  C170  1  0.76986532  0.00809862  0.42813556  1
  O  O171  1  0.92384836  0.31430862  0.49923205  1
  O  O172  1  0.95769867  0.34100647  0.25730654  1
  H  H173  1  0.76574298  0.21729412  0.70259904  1
  C  C174  1  0.82008106  0.22144306  0.74076797  1
  O  O175  1  0.78433764  0.33601959  0.64305440  1
  O  O176  1  0.76473244  0.09754815  0.71247054  1
  H  H177  1  0.71478908  0.47625619  0.66572923  1
  Zn  Zn178  1  0.93728509  0.02415516  0.60414588  1
  Zn  Zn179  1  0.82147120  0.37037891  0.51931087  1
  H  H180  1  0.73703574  0.01750035  0.55838747  1
  C  C181  1  0.81580871  0.35046215  0.71121033  1
  O  O182  1  0.78603058  0.47920558  0.53589655  1
  O  O183  1  0.82965490  0.41324912  0.73120264  1
  C  C184  1  0.66160393  0.49904535  0.64023354  1
  O  O185  1  0.86331202  0.06577627  0.50972389  1
  C  C186  1  0.91300604  0.17430923  0.84418829  1
  C  C187  1  0.83244550  0.42655910  0.98590070  1
  H  H188  1  0.93490267  0.12859381  0.87555740  1
  O  O189  1  0.61961549  0.09317423  0.85538469  1
  O  O190  1  0.81417244  0.41721239  0.90958147  1
  C  C191  1  0.52523748  0.20576280  0.92417487  1
  H  H192  1  0.76557818  0.29676791  0.94584649  1
  C  C193  1  0.80650793  0.09694102  0.77236700  1
  H  H194  1  0.94141331  0.35009462  0.82886980  1
  H  H195  1  0.59181867  0.21276085  0.92087139  1
  O  O196  1  0.66989942  0.44456160  0.79932016  1
  O  O197  1  0.80326853  0.04774111  0.82781565  1
  C  C198  1  0.94431021  0.24185732  0.85573890  1
  C  C199  1  0.54789421  0.08752934  0.85740622  1
  O  O200  1  0.58917075  0.34155004  0.98102079  1
  Zn  Zn201  1  0.71840514  0.04850846  0.92494634  1
  C  C202  1  0.51886610  0.33518362  0.97894802  1
  O  O203  1  0.71985012  0.18583846  0.94828973  1
  C  C204  1  0.91145649  0.29972768  0.81333905  1
  C  C205  1  0.85256937  0.16607411  0.78736772  1
  O  O206  1  0.54367521  0.46025380  0.81282498  1
  C  C207  1  0.85130627  0.28846905  0.75694077  1
  Zn  Zn208  1  0.54299900  0.48967949  0.94790058  1
  C  C209  1  0.60495923  0.46571285  0.77156057  1
  O  O210  1  0.51668513  0.03321049  0.82805483  1
  Zn  Zn211  1  0.78104644  0.49406740  0.81752541  1
  Zn  Zn212  1  0.78325295  0.58226853  0.03691514  1
  O  O213  1  0.58462034  0.89242760  0.24872305  1
  C  C214  1  0.98353797  0.66001862  0.03688824  1
  O  O215  1  0.69885380  0.91673487  0.19997927  1
  H  H216  1  0.92575752  0.58320376  0.11000213  1
  C  C217  1  0.98028300  0.60824859  0.09659023  1
  H  H218  1  0.51878000  0.77714447  0.24729017  1
  O  O219  1  0.84618092  0.67307347  0.02135924  1
  O  O220  1  0.70726004  0.53760698  0.11935288  1
  O  O221  1  0.59338107  0.51774770  0.06868935  1
  Zn  Zn222  1  0.50140833  0.90864666  0.15513450  1
  O  O223  1  0.72929710  0.53861885  0.43408869  1
  C  C224  1  0.96123097  0.67284682  0.32452956  1
  Zn  Zn225  1  0.73827355  0.64370958  0.37921863  1
  C  C226  1  0.77950616  0.77436668  0.46564913  1
  H  H227  1  0.88280291  0.75783778  0.28622593  1
  O  O228  1  0.62954775  0.59890991  0.31166867  1
  O  O229  1  0.83279226  0.63112009  0.29902432  1
  C  C230  1  0.67946524  0.94688904  0.33980103  1
  H  H231  1  0.88278654  0.88589734  0.46901438  1
  O  O232  1  0.74159678  0.71565346  0.47592046  1
  C  C233  1  0.64809922  0.96768433  0.48175662  1
  C  C234  1  0.89982502  0.61369264  0.32121461  1
  C  C235  1  0.59759929  0.65645482  0.28993667  1
  H  H236  1  0.56457041  0.93301944  0.39490937  1
  O  O237  1  0.91564190  0.55218495  0.34661271  1
  C  C238  1  0.62560946  0.94338169  0.40376867  1
  O  O239  1  0.63486488  0.71244800  0.29993339  1
  H  H240  1  0.58083882  0.54879307  0.45081588  1
  C  C241  1  0.98014018  0.87524919  0.30900086  1
  C  C242  1  0.94279653  0.74501340  0.30774992  1
  O  O243  1  0.74588418  0.82894735  0.45156443  1
  C  C244  1  0.65358892  0.91644852  0.25628525  1
  C  C245  1  0.75338891  0.97897680  0.35212617  1
  H  H246  1  0.79902060  0.98483837  0.30261723  1
  C  C247  1  0.91318467  0.83582714  0.48546618  1
  C  C248  1  0.86880540  0.77287249  0.48325972  1
  C  C249  1  0.71939645  0.99764734  0.49686751  1
  H  H250  1  0.50275106  0.54219170  0.25508915  1
  O  O251  1  0.91591820  0.89671377  0.29460734  1
  C  C252  1  0.51496666  0.66016937  0.25482973  1
  C  C253  1  0.85851444  0.90544940  0.67966626  1
  C  C254  1  0.80241275  0.71157581  0.72266774  1
  C  C255  1  0.98890193  0.83705831  0.51364465  1
  O  O256  1  0.99241224  0.58329487  0.53250594  1
  C  C257  1  0.98040038  0.71475416  0.53255744  1
  H  H258  1  0.91132807  0.76290321  0.70140997  1
  O  O259  1  0.92968567  0.89800231  0.68093125  1
  O  O260  1  0.83006223  0.96047684  0.64703318  1
  C  C261  1  0.60205130  0.79795950  0.73673198  1
  C  C262  1  0.81051463  0.83559503  0.69645229  1
  C  C263  1  0.73012110  0.84475750  0.69782136  1
  C  C264  1  0.84988094  0.77088869  0.70837256  1
  C  C265  1  0.69103890  0.78220404  0.71772095  1
  C  C266  1  0.71882767  0.71459851  0.72863543  1
  O  O267  1  0.56164350  0.74669662  0.72255273  1
  H  H268  1  0.70364363  0.89834210  0.68884722  1
  C  C269  1  0.53060841  0.55437207  0.57429714  1
  C  C270  1  0.58894652  0.54359151  0.51810934  1
  C  C271  1  0.59056368  0.95732135  0.55504841  1
  Zn  Zn272  1  0.51698090  0.95475649  0.71326954  1
  O  O273  1  0.53225366  0.92352099  0.53803835  1
  C  C274  1  0.90354588  0.70814576  0.50648801  1
  H  H275  1  0.87092344  0.65515829  0.51150062  1
  C  C276  1  0.52788345  0.53444048  0.65762295  1
  C  C277  1  0.84308235  0.64150874  0.73095928  1
  C  C278  1  0.65800008  0.51976768  0.55655278  1
  O  O279  1  0.60703753  0.98107957  0.62577325  1
  H  H280  1  0.68290164  0.66583715  0.74530710  1
  O  O281  1  0.80151323  0.58524007  0.74044975  1
  C  C282  1  0.59461482  0.50243300  0.69042878  1
  O  O283  1  0.91578255  0.63738436  0.72212853  1
  C  C284  1  0.73065716  0.51423161  0.50753541  1
  O  O285  1  0.99881905  0.97257428  0.50825201  1
  H  H286  1  0.52435831  0.68135490  0.93534527  1
  C  C287  1  0.64815181  0.70100890  0.92154919  1
  O  O288  1  0.73359796  0.59292128  0.90877407  1
  C  C289  1  0.71114784  0.74793742  0.92379621  1
  C  C290  1  0.66506237  0.62061470  0.91128265  1
  C  C291  1  0.69519511  0.81785815  0.94677479  1
  O  O292  1  0.60560828  0.58704827  0.89651159  1
  H  H293  1  0.77052040  0.72856146  0.90533209  1
  C  C294  1  0.57191229  0.71984268  0.93423225  1
  C  C295  1  0.75387333  0.88260176  0.94590190  1
  O  O296  1  0.82075815  0.88060695  0.92331474  1
  C  C297  1  0.62062523  0.84107118  0.97271480  1
  O  O298  1  0.72494107  0.94158968  0.97336293  1
  H  H299  1  0.60676518  0.89817708  0.99433213  1
  C  C300  1  0.56199279  0.79007180  0.96670707  1
  O  O301  1  0.91557833  0.72404978  0.92583027  1
  O  O302  1  0.58062683  0.85720995  0.76365899  1
  C  C303  1  0.91290444  0.69070382  0.98856131  1
