# generated using pymatgen
data_ZnH9C13O4
_symmetry_space_group_name_H-M   'P 1'
_cell_length_a   15.11816194
_cell_length_b   16.65340194
_cell_length_c   21.03311651
_cell_angle_alpha   90.00000000
_cell_angle_beta   90.00000000
_cell_angle_gamma   90.00000000
_symmetry_Int_Tables_number   1
_chemical_formula_structural   ZnH9C13O4
_chemical_formula_sum   'Zn16 H144 C208 O64'
_cell_volume   5295.48308039
_cell_formula_units_Z   16
loop_
 _symmetry_equiv_pos_site_id
 _symmetry_equiv_pos_as_xyz
  1  'x, y, z'
loop_
 _atom_site_type_symbol
 _atom_site_label
 _atom_site_symmetry_multiplicity
 _atom_site_fract_x
 _atom_site_fract_y
 _atom_site_fract_z
 _atom_site_occupancy
  C  C0  1  0.16145922  0.34147815  0.06591648  1
  O  O1  1  0.27222070  0.24003264  0.18908564  1
  H  H2  1  0.38545451  0.39426173  0.15187411  1
  C  C3  1  0.31966820  0.43047605  0.00918348  1
  C  C4  1  0.19204066  0.42488176  0.08978790  1
  C  C5  1  0.21208839  0.18975997  0.17525538  1
  C  C6  1  0.43160717  0.44119762  0.13957365  1
  C  C7  1  0.04592165  0.18042811  0.19524398  1
  C  C8  1  0.27652185  0.45544077  0.07213488  1
  H  H9  1  0.20831905  0.28824067  0.06879109  1
  H  H10  1  0.03850385  0.18921009  0.14433965  1
  C  C11  1  0.05173739  0.42458354  0.14999902  1
  C  C12  1  0.14073695  0.46605369  0.13723232  1
  C  C13  1  0.13914691  0.17292072  0.22009601  1
  C  C14  1  0.03437012  0.40752519  0.21436878  1
  O  O15  1  0.20341599  0.15782760  0.12224494  1
  Zn  Zn16  1  0.41735444  0.20332581  0.21194251  1
  H  H17  1  0.13588266  0.34519272  0.01816260  1
  O  O18  1  0.48714583  0.30733688  0.20474846  1
  H  H19  1  0.09015210  0.42061095  0.24862186  1
  H  H20  1  0.02641167  0.00457344  0.20292758  1
  H  H21  1  0.38730053  0.45541434  0.00671013  1
  H  H22  1  0.48375060  0.35855888  0.03877268  1
  O  O23  1  0.48594575  0.10392990  0.16574445  1
  H  H24  1  0.10038543  0.32224398  0.09189508  1
  O  O25  1  0.27800595  0.18127389  0.43260736  1
  O  O26  1  0.41407913  0.35192245  0.47433577  1
  H  H27  1  0.22469078  0.09371680  0.28236595  1
  C  C28  1  0.49096438  0.03194232  0.32625033  1
  C  C29  1  0.42151577  0.42590543  0.48275967  1
  H  H30  1  0.38325913  0.09596683  0.48645022  1
  C  C31  1  0.07637001  0.07498870  0.30667707  1
  O  O32  1  0.40196478  0.15022201  0.29659595  1
  O  O33  1  0.15675269  0.45602184  0.43193693  1
  C  C34  1  0.40436737  0.07245383  0.30707662  1
  C  C35  1  0.15576361  0.11991687  0.27429906  1
  Zn  Zn36  1  0.05450950  0.20199021  0.29713141  1
  O  O37  1  0.33759565  0.03584858  0.30517645  1
  O  O38  1  0.35105471  0.46383357  0.49207837  1
  H  H39  1  0.17518786  0.03578781  0.46367746  1
  C  C40  1  0.25899818  0.20286024  0.48746044  1
  H  H41  1  0.16658508  0.09688683  0.39698960  1
  C  C42  1  0.18584187  0.03845070  0.41315332  1
  O  O43  1  0.20417229  0.25779498  0.49914474  1
  H  H44  1  0.25976875  0.03129563  0.40865261  1
  Zn  Zn45  1  0.23813187  0.37748360  0.49148825  1
  C  C46  1  0.27540526  0.17975374  0.60711808  1
  H  H47  1  0.43953802  0.26732361  0.58719933  1
  C  C48  1  0.29822681  0.15766317  0.54434288  1
  O  O49  1  0.24030835  0.23658537  0.72627314  1
  C  C50  1  0.36784329  0.10320929  0.53672940  1
  C  C51  1  0.37831717  0.08302899  0.65133603  1
  C  C52  1  0.03348152  0.17379276  0.70147815  1
  C  C53  1  0.31065716  0.13700470  0.65691482  1
  H  H54  1  0.36458541  0.33897353  0.63288437  1
  H  H55  1  0.05747064  0.23972818  0.57024576  1
  H  H56  1  0.22334840  0.22499524  0.61615898  1
  C  C57  1  0.31638046  0.45289600  0.64818097  1
  Zn  Zn58  1  0.10696326  0.28479609  0.69471124  1
  H  H59  1  0.49117690  0.17547385  0.62313528  1
  C  C60  1  0.41344690  0.06707435  0.58860341  1
  H  H61  1  0.40831714  0.05020818  0.69256928  1
  O  O62  1  0.16656161  0.42077001  0.68329940  1
  O  O63  1  0.07845474  0.12223426  0.67058354  1
  O  O64  1  0.20896098  0.36696317  0.59708822  1
  H  H65  1  0.43073511  0.24832052  0.67529546  1
  C  C66  1  0.38684297  0.39973758  0.64244611  1
  C  C67  1  0.22236431  0.41230301  0.64337554  1
  C  C68  1  0.26903837  0.16455022  0.72257401  1
  C  C69  1  0.47764805  0.42260556  0.64700180  1
  C  C70  1  0.49642774  0.01879681  0.58577806  1
  C  C71  1  0.47209057  0.23984680  0.62928678  1
  H  H72  1  0.21771252  0.02980463  0.69241323  1
  H  H73  1  0.35765185  0.42381572  0.88453604  1
  C  C74  1  0.42496419  0.44922899  0.88941985  1
  Zn  Zn75  1  0.11193705  0.05067872  0.75993905  1
  H  H76  1  0.48254231  0.40010989  0.79954437  1
  O  O77  1  0.02790521  0.15876721  0.76161799  1
  C  C78  1  0.49071634  0.28081222  0.84585051  1
  H  H79  1  0.39737149  0.03563478  0.82649938  1
  C  C80  1  0.45451672  0.00927877  0.84994018  1
  C  C81  1  0.07369136  0.35508611  0.90254657  1
  O  O82  1  0.08455040  0.07330497  0.86433214  1
  H  H83  1  0.13061764  0.34083285  0.87622630  1
  O  O84  1  0.26675522  0.11984596  0.76957695  1
  H  H85  1  0.09852247  0.40512432  0.93402305  1
  C  C86  1  0.02658642  0.05928711  0.90588813  1
  H  H87  1  0.05626681  0.29934121  0.93320238  1
  C  C88  1  0.48048118  0.33648349  0.78865355  1
  H  H89  1  0.29204718  0.46379884  0.96596733  1
  H  H90  1  0.02073922  0.21280116  0.85210783  1
  H  H91  1  0.42061635  0.32491295  0.76091650  1
  H  H92  1  0.13169645  0.46715031  0.85982428  1
  C  C93  1  0.08226449  0.49923710  0.82750093  1
  H  H94  1  0.31754574  0.36507794  0.99883501  1
  H  H95  1  0.43645759  0.13836963  0.75548295  1
  C  C96  1  0.37737445  0.82606731  0.17026570  1
  H  H97  1  0.13144250  0.64532314  0.21829601  1
  H  H98  1  0.34928299  0.58332925  0.24043914  1
  C  C99  1  0.22018688  0.80069601  0.21959627  1
  H  H100  1  0.15562419  0.61695608  0.07534626  1
  C  C101  1  0.03240474  0.94172844  0.22020660  1
  O  O102  1  0.04620649  0.56123133  0.01372285  1
  C  C103  1  0.41304091  0.77293276  0.06123809  1
  C  C104  1  0.12214397  0.57954010  0.22361274  1
  C  C105  1  0.29009814  0.79905190  0.16481013  1
  C  C106  1  0.33412954  0.72222430  0.06161405  1
  C  C107  1  0.47760885  0.77316429  0.00497064  1
  C  C108  1  0.12921032  0.68117738  0.07590843  1
  H  H109  1  0.24057083  0.64376580  0.00574813  1
  C  C110  1  0.27238277  0.74871014  0.10969632  1
  C  C111  1  0.48267888  0.57050547  0.09160365  1
  C  C112  1  0.43321568  0.82262267  0.11404904  1
  C  C113  1  0.17517885  0.74944951  0.09566540  1
  H  H114  1  0.05367482  0.55999578  0.22306830  1
  H  H115  1  0.37085076  0.64875005  0.17185012  1
  C  C116  1  0.13331631  0.83352324  0.09702084  1
  C  C117  1  0.04052787  0.83842455  0.07605846  1
  H  H118  1  0.38952951  0.92150132  0.24348533  1
  H  H119  1  0.27498359  0.66294520  0.22087862  1
  C  C120  1  0.03765386  0.69195061  0.06402636  1
  H  H121  1  0.46130114  0.62822107  0.06943454  1
  C  C122  1  0.26411218  0.55573743  0.15894081  1
  H  H123  1  0.15256176  0.87006075  0.13880416  1
  C  C124  1  0.31571302  0.61689932  0.19848619  1
  C  C125  1  0.17268443  0.53621888  0.17000916  1
  H  H126  1  0.14906343  0.79553088  0.20463369  1
  H  H127  1  0.22186266  0.85963232  0.24419616  1
  C  C128  1  0.31595213  0.51707745  0.11115098  1
  C  C129  1  0.41757954  0.86004121  0.23283687  1
  C  C130  1  0.41701899  0.51913095  0.11404306  1
  H  H131  1  0.02081165  0.89657905  0.18424335  1
  H  H132  1  0.43888741  0.97901786  0.14634204  1
  C  C133  1  0.01028921  0.91824604  0.06502906  1
  C  C134  1  0.31051447  0.66511645  0.00666716  1
  O  O135  1  0.01431828  0.98367719  0.08712117  1
  H  H136  1  0.49032406  0.86669436  0.22147033  1
  Zn  Zn137  1  0.12373502  0.89850600  0.00551756  1
  H  H138  1  0.35751275  0.61327237  0.01330924  1
  C  C139  1  0.16391253  0.59752525  0.40204792  1
  H  H140  1  0.05267181  0.67850038  0.40512893  1
  C  C141  1  0.48922870  0.95362856  0.34703997  1
  H  H142  1  0.42460732  0.91945285  0.35022561  1
  C  C143  1  0.16723645  0.73485153  0.37161878  1
  C  C144  1  0.15517434  0.88312270  0.39640582  1
  O  O145  1  0.42915426  0.56444639  0.34812648  1
  C  C146  1  0.12028205  0.66916177  0.39580826  1
  H  H147  1  0.24403886  0.91509544  0.47573542  1
  H  H148  1  0.29033326  0.52382301  0.39356539  1
  C  C149  1  0.25608196  0.72399589  0.35206468  1
  C  C150  1  0.14112406  0.96582175  0.37860335  1
  C  C151  1  0.29247017  0.64846698  0.35788530  1
  C  C152  1  0.07301526  0.83129274  0.30153632  1
  C  C153  1  0.03092910  0.76896969  0.27088691  1
  C  C154  1  0.13030277  0.81671607  0.35691060  1
  H  H155  1  0.45658012  0.58415650  0.46882777  1
  C  C156  1  0.39251895  0.64327598  0.34361667  1
  C  C157  1  0.06212272  0.92364139  0.27943471  1
  C  C158  1  0.20000153  0.86601804  0.45964518  1
  H  H159  1  0.04033487  0.70485383  0.28630886  1
  H  H160  1  0.29736129  0.77600560  0.33619727  1
  C  C161  1  0.25267700  0.58212891  0.38477551  1
  C  C162  1  0.09457132  0.98894480  0.32259558  1
  H  H163  1  0.15336315  0.85193189  0.49754701  1
  O  O164  1  0.43353902  0.69924523  0.32578330  1
  H  H165  1  0.24015114  0.80846650  0.46023948  1
  O  O166  1  0.03796487  0.52932388  0.43913697  1
  H  H167  1  0.15648122  0.56323936  0.26937641  1
  C  C168  1  0.11921876  0.52305939  0.42782246  1
  H  H169  1  0.23469052  0.75028718  0.25315189  1
  H  H170  1  0.49162129  0.57547913  0.34040486  1
  H  H171  1  0.45027052  0.90277061  0.49193539  1
  H  H172  1  0.40991002  0.82092824  0.27314362  1
  O  O173  1  0.37542966  0.69688850  0.67666636  1
  H  H174  1  0.37760982  0.94597363  0.66170815  1
  C  C175  1  0.44217543  0.64606059  0.66910532  1
  C  C176  1  0.41790907  0.55723052  0.66029449  1
  H  H177  1  0.27298289  0.57953723  0.66587029  1
  H  H178  1  0.45640109  0.91198704  0.71411709  1
  H  H179  1  0.42754941  0.84197162  0.65018443  1
  Zn  Zn180  1  0.06099209  0.71598293  0.66556517  1
  H  H181  1  0.24735180  0.95209473  0.74112192  1
  C  C182  1  0.43843868  0.90864319  0.66183790  1
  C  C183  1  0.32889625  0.53392812  0.65720188  1
  O  O184  1  0.03718020  0.77453140  0.57315978  1
  O  O185  1  0.20137393  0.97150399  0.70971687  1
  H  H186  1  0.44244241  0.67469479  0.52639566  1
  O  O187  1  0.19410447  0.61287634  0.74075582  1
  H  H188  1  0.00738675  0.57198805  0.70103783  1
  H  H189  1  0.01334417  0.88348862  0.65795598  1
  C  C190  1  0.49116442  0.50757401  0.65760541  1
  H  H191  1  0.01512162  0.78801566  0.82286259  1
  C  C192  1  0.42554166  0.53100221  0.87920966  1
  C  C193  1  0.33500600  0.56913836  0.86502357  1
  H  H194  1  0.07327069  0.56048192  0.84757952  1
  O  O195  1  0.33107798  0.64347618  0.85447802  1
  H  H196  1  0.31487070  0.69280329  0.95831844  1
  O  O197  1  0.40548990  0.80722531  0.79996952  1
  H  H198  1  0.10975809  0.50834116  0.77835938  1
  O  O199  1  0.27265097  0.52371717  0.86051706  1
  C  C200  1  0.02219470  0.68519122  0.75744969  1
  C  C201  1  0.39181687  0.87952817  0.80914735  1
  C  C202  1  0.46462966  0.92830020  0.84380769  1
  Zn  Zn203  1  0.31493645  0.70393537  0.76752887  1
  O  O204  1  0.33454181  0.91904479  0.78445300  1
  H  H205  1  0.44080237  0.75676051  0.96111308  1
  C  C206  1  0.12287456  0.69757325  0.75408910  1
  O  O207  1  0.16989176  0.75329026  0.76806288  1
  H  H208  1  0.21432445  0.61200115  0.78535471  1
  O  O209  1  0.00702455  0.98941868  0.92679714  1
  O  O210  1  0.00539397  0.95510979  0.76401288  1
  O  O211  1  0.70646708  0.18380926  0.03909134  1
  O  O212  1  0.62788158  0.13989566  0.16820063  1
  C  C213  1  0.90269962  0.38880439  0.12421289  1
  O  O214  1  0.62556769  0.32340671  0.18242095  1
  C  C215  1  0.88340144  0.15163861  0.19864128  1
  Zn  Zn216  1  0.71165227  0.23838417  0.13147996  1
  O  O217  1  0.83886967  0.20975443  0.18032154  1
  C  C218  1  0.58992494  0.47255550  0.12600683  1
  O  O219  1  0.75792297  0.35543500  0.09385904  1
  H  H220  1  0.81551209  0.35448103  0.19974780  1
  H  H221  1  0.65989091  0.46020075  0.13816981  1
  C  C222  1  0.82908047  0.38474527  0.07530387  1
  H  H223  1  0.51853505  0.15168821  0.05444367  1
  O  O224  1  0.86322642  0.08033011  0.18916600  1
  C  C225  1  0.98379489  0.42024633  0.10349353  1
  O  O226  1  0.83768038  0.41177908  0.01857976  1
  C  C227  1  0.56708709  0.08998276  0.15870609  1
  C  C228  1  0.54770624  0.34196255  0.17414733  1
  O  O229  1  0.76927182  0.06579623  0.04205655  1
  C  C230  1  0.88369235  0.37228160  0.18717850  1
  C  C231  1  0.95146935  0.38332182  0.23263559  1
  C  C232  1  0.96687257  0.15461416  0.23376741  1
  C  C233  1  0.52070813  0.41953385  0.14364097  1
  C  C234  1  0.53753697  0.31112862  0.02502078  1
  C  C235  1  0.76300578  0.13449296  0.01824114  1
  H  H236  1  0.60340495  0.34697116  0.01719395  1
  H  H237  1  0.54981419  0.27074669  0.06706105  1
  C  C238  1  0.58124308  0.00366464  0.14120002  1
  Zn  Zn239  1  0.87374838  0.01776445  0.09955464  1
  H  H240  1  0.98985352  0.44343358  0.05411736  1
  H  H241  1  0.72976724  0.00568675  0.14247523  1
  H  H242  1  0.52203474  0.06433071  0.00148043  1
  C  C243  1  0.51776596  0.13077419  0.00480928  1
  C  C244  1  0.92177957  0.24172575  0.47639073  1
  H  H245  1  0.76220637  0.17880281  0.28963950  1
  C  C246  1  0.75564636  0.41124829  0.45013263  1
  C  C247  1  0.72561973  0.09211912  0.34878436  1
  C  C248  1  0.64612727  0.04402329  0.34438353  1
  O  O249  1  0.71578062  0.18359508  0.32642761  1
  Zn  Zn250  1  0.78228597  0.26234081  0.36942634  1
  C  C251  1  0.91981923  0.37366502  0.30143593  1
  O  O252  1  0.74261413  0.33816718  0.45095357  1
  C  C253  1  0.51231410  0.46498960  0.47232238  1
  O  O254  1  0.84246853  0.35857170  0.31365081  1
  O  O255  1  0.87055324  0.20888977  0.43693000  1
  C  C256  1  0.58960066  0.41828664  0.46669052  1
  H  H257  1  0.92800618  0.05114026  0.29593604  1
  C  C258  1  0.67083836  0.45549077  0.45432051  1
  H  H259  1  0.56371098  0.14076852  0.30263632  1
  O  O260  1  0.79275250  0.06335249  0.36498430  1
  H  H261  1  0.58933708  0.35319477  0.47346894  1
  C  C262  1  0.56728328  0.07854133  0.32229652  1
  O  O263  1  0.82723880  0.44767106  0.45352455  1
  Zn  Zn264  1  0.96071431  0.42105220  0.44387375  1
  C  C265  1  0.98192845  0.09644327  0.28701121  1
  O  O266  1  0.97807314  0.38629691  0.34248310  1
  O  O267  1  0.97155092  0.29959507  0.46249787  1
  H  H268  1  0.51995859  0.07072537  0.45405287  1
  H  H269  1  0.72722355  0.02445202  0.46774088  1
  H  H270  1  0.62026610  0.12477400  0.47324784  1
  C  C271  1  0.55646621  0.10123163  0.49339343  1
  C  C272  1  0.63906432  0.24532421  0.65769293  1
  H  H273  1  0.69508289  0.13025973  0.62419496  1
  C  C274  1  0.57145075  0.04077366  0.54819359  1
  H  H275  1  0.70420846  0.14314839  0.70862508  1
  C  C276  1  0.82027701  0.22815693  0.57075383  1
  H  H277  1  0.76826701  0.24009144  0.53643085  1
  C  C278  1  0.63712705  0.41528127  0.61934914  1
  Zn  Zn279  1  0.89846933  0.14530029  0.62469302  1
  C  C280  1  0.87743095  0.24883556  0.68294280  1
  C  C281  1  0.80230068  0.41496919  0.60883800  1
  C  C282  1  0.98860316  0.22572954  0.58693374  1
  C  C283  1  0.80173057  0.24748577  0.63955432  1
  C  C284  1  0.71975016  0.29115208  0.64998044  1
  C  C285  1  0.91397524  0.21932755  0.54402151  1
  H  H286  1  0.59384438  0.11723965  0.66871440  1
  C  C287  1  0.71626643  0.37281267  0.62741824  1
  H  H288  1  0.86665432  0.26779031  0.73275438  1
  C  C289  1  0.55951485  0.28365971  0.64085894  1
  C  C290  1  0.65660664  0.15273177  0.66754817  1
  H  H291  1  0.84501633  0.37262310  0.58278494  1
  H  H292  1  0.83921295  0.43132831  0.65177916  1
  C  C293  1  0.55722240  0.37208050  0.63729597  1
  H  H294  1  0.72575699  0.42046403  0.73807963  1
  H  H295  1  0.79120580  0.46744069  0.57945035  1
  H  H296  1  0.53800788  0.19253026  0.73515707  1
  C  C297  1  0.97621169  0.23728870  0.66296480  1
  C  C298  1  0.64772833  0.49892544  0.59159644  1
  C  C299  1  0.73536188  0.03961505  0.51749367  1
  H  H300  1  0.51841519  0.15656643  0.51028575  1
  H  H301  1  0.69565542  0.49801091  0.55068549  1
  C  C302  1  0.65713252  0.00867858  0.55591206  1
  H  H303  1  0.74593975  0.10581981  0.51935107  1
  H  H304  1  0.79919758  0.01653131  0.53904667  1
  C  C305  1  0.50237048  0.31682490  0.90892588  1
  C  C306  1  0.50502968  0.41040516  0.90574600  1
  C  C307  1  0.89749585  0.25143112  0.89476293  1
  C  C308  1  0.83214448  0.43841300  0.80147415  1
  H  H309  1  0.78351310  0.28422567  0.95519149  1
  C  C310  1  0.96192656  0.12452538  0.91380524  1
  C  C311  1  0.50999667  0.18151527  0.95301489  1
  C  C312  1  0.91054103  0.33152551  0.86043145  1
  H  H313  1  0.69323361  0.32878887  0.79553420  1
  H  H314  1  0.75840655  0.24628980  0.82066095  1
  C  C315  1  0.83096110  0.16396596  0.97084508  1
  C  C316  1  0.89225598  0.10498505  0.95657822  1
  C  C317  1  0.96478592  0.19678180  0.88049139  1
  H  H318  1  0.64371169  0.05125058  0.93635642  1
  C  C319  1  0.74438520  0.31089961  0.83137665  1
  C  C320  1  0.58423198  0.45435948  0.91194349  1
  C  C321  1  0.51442694  0.26951641  0.96311176  1
  C  C322  1  0.51930847  0.05174583  0.88542525  1
  H  H323  1  0.64653842  0.42333823  0.92343853  1
  C  C324  1  0.82977733  0.23836739  0.93908184  1
  H  H325  1  0.89549168  0.04807511  0.98161179  1
  C  C326  1  0.82987931  0.36272107  0.83204170  1
  C  C327  1  0.59697646  0.01808534  0.90762600  1
  C  C328  1  0.75156133  0.47064887  0.76747156  1
  H  H329  1  0.71304403  0.31454016  0.87923355  1
  C  C330  1  0.91643449  0.48322523  0.80356961  1
  C  C331  1  0.51050345  0.14288425  0.89133952  1
  H  H332  1  0.70114395  0.48646951  0.80593264  1
  C  C333  1  0.50593354  0.15542972  0.77281196  1
  C  C334  1  0.99483575  0.45097308  0.82833608  1
  H  H335  1  0.53821490  0.09655343  0.77561986  1
  C  C336  1  0.50887932  0.19648526  0.83861926  1
  C  C337  1  0.99026929  0.37657410  0.86453709  1
  H  H338  1  0.53391217  0.32544508  0.75071205  1
  O  O339  1  0.72456887  0.57607332  0.07982034  1
  H  H340  1  0.54075571  0.73400455  0.01147447  1
  C  C341  1  0.66480110  0.97226663  0.13105515  1
  O  O342  1  0.76411548  0.78864464  0.08009000  1
  O  O343  1  0.62542518  0.66084669  0.04771447  1
  C  C344  1  0.76119460  0.85829277  0.10114503  1
  C  C345  1  0.64580193  0.59697420  0.07718271  1
  C  C346  1  0.57051477  0.54525233  0.09712464  1
  O  O347  1  0.91623367  0.60785734  0.04498868  1
  C  C348  1  0.66902770  0.89225652  0.11273042  1
  C  C349  1  0.51455095  0.87637911  0.11536256  1
  O  O350  1  0.82853577  0.89645805  0.11560198  1
  C  C351  1  0.59699511  0.84490080  0.09821275  1
  H  H352  1  0.60401687  0.78285456  0.08128757  1
  H  H353  1  0.92389478  0.76548601  0.06122681  1
  Zn  Zn354  1  0.80729755  0.53565071  0.00800031  1
  H  H355  1  0.98788670  0.77722148  0.23013581  1
  C  C356  1  0.99466207  0.76451074  0.06566458  1
  C  C357  1  0.99937666  0.60999809  0.04007771  1
  C  C358  1  0.50401465  0.95661484  0.13213361  1
  C  C359  1  0.62624535  0.69066552  0.36223322  1
  H  H360  1  0.64390178  0.57054157  0.33130452  1
  C  C361  1  0.54847356  0.72552192  0.46470017  1
  H  H362  1  0.71158656  0.93469254  0.38657221  1
  H  H363  1  0.73666692  0.56758355  0.42489569  1
  C  C364  1  0.61881940  0.78392120  0.34519127  1
  C  C365  1  0.58495817  0.66778912  0.42442766  1
  C  C366  1  0.64973098  0.63457835  0.31844761  1
  C  C367  1  0.59624586  0.58153198  0.44225132  1
  C  C368  1  0.57761506  0.83775709  0.39235255  1
  C  C369  1  0.57080233  0.92391446  0.37268756  1
  C  C370  1  0.67432540  0.53647552  0.44065680  1
  H  H371  1  0.67820511  0.64778540  0.27087220  1
  C  C372  1  0.65095548  0.81332946  0.29052511  1
  C  C373  1  0.54817921  0.81159082  0.45260497  1
  C  C374  1  0.65182125  0.96503927  0.36796114  1
  C  C375  1  0.51541310  0.54702406  0.46181857  1
  H  H376  1  0.68368706  0.77592571  0.25254279  1
  H  H377  1  0.65511828  0.87640413  0.28202572  1
  H  H378  1  0.56736988  0.92434389  0.49539740  1
  C  C379  1  0.88811627  0.93531979  0.68953517  1
  H  H380  1  0.78325615  0.85254391  0.52864696  1
  C  C381  1  0.76682894  0.92121917  0.61797690  1
  H  H382  1  0.55817565  0.52993568  0.66911946  1
  H  H383  1  0.75257151  0.97511448  0.71445982  1
  C  C384  1  0.90014791  0.85513760  0.59474469  1
  C  C385  1  0.94017628  0.88968033  0.64665700  1
  H  H386  1  0.68512271  0.83820559  0.69059271  1
  C  C387  1  0.61526177  0.86043841  0.69133190  1
  C  C388  1  0.51096978  0.95108517  0.62571204  1
  H  H389  1  0.60336527  0.88948455  0.73605651  1
  C  C390  1  0.50876492  0.69963518  0.52991580  1
  C  C391  1  0.79824088  0.94746651  0.67862391  1
  C  C392  1  0.67247239  0.94973498  0.60369242  1
  O  O393  1  0.51560014  0.67318238  0.66366109  1
  C  C394  1  0.59768815  0.92021999  0.63620143  1
  C  C395  1  0.81239829  0.86972568  0.57588025  1
  C  C396  1  0.95844878  0.79741985  0.55753207  1
  H  H397  1  0.67219379  0.54652926  0.62685560  1
  H  H398  1  0.52288422  0.85244713  0.54966092  1
  H  H399  1  0.56506012  0.81019620  0.69336977  1
  H  H400  1  0.54707921  0.65229240  0.55398194  1
  H  H401  1  0.58671163  0.52429457  0.57261366  1
  C  C402  1  0.98190778  0.61054811  0.74080005  1
  H  H403  1  0.50686941  0.74760793  0.56639570  1
  H  H404  1  0.76544513  0.52474560  0.73940185  1
  O  O405  1  0.92030237  0.77039676  0.51110945  1
  C  C406  1  0.51908058  0.87527350  0.50054463  1
  C  C407  1  0.58123924  0.53809900  0.90357721  1
  C  C408  1  0.60570717  0.93585807  0.89448969  1
  C  C409  1  0.89726908  0.74996466  0.90334776  1
  Zn  Zn410  1  0.88080158  0.93064508  0.88814890  1
  H  H411  1  0.54537690  0.82351419  0.86180398  1
  C  C412  1  0.68619593  0.89548341  0.91584618  1
  O  O413  1  0.66780193  0.65700960  0.90087914  1
  C  C414  1  0.66769661  0.58352716  0.90710231  1
  O  O415  1  0.86915780  0.97674191  0.79595699  1
  O  O416  1  0.75669492  0.93794168  0.92562911  1
  C  C417  1  0.88953171  0.62071192  0.83587351  1
  C  C418  1  0.93277845  0.57227038  0.79047166  1
  O  O419  1  0.84950215  0.72204504  0.94697666  1
  O  O420  1  0.73810744  0.54316557  0.91702218  1
  Zn  Zn421  1  0.71283366  0.72972647  0.98714846  1
  H  H422  1  0.83743328  0.59232617  0.86275867  1
  O  O423  1  0.68545793  0.82217602  0.91273250  1
  O  O424  1  0.92932261  0.81780584  0.91227729  1
  C  C425  1  0.92136416  0.70038114  0.84566596  1
  C  C426  1  0.53766742  0.88819049  0.86934993  1
  C  C427  1  0.98879458  0.73038341  0.80915272  1
  H  H428  1  0.50653942  0.64155245  0.88154509  1
  C  C429  1  0.50263660  0.57645051  0.88956745  1
  H  H430  1  0.50198764  0.83623493  0.99777723  1
  C  C431  1  0.92358267  0.96173714  0.75194382  1
