# generated using pymatgen
data_CuH9C13O4
_symmetry_space_group_name_H-M   'P 1'
_cell_length_a   12.06963406
_cell_length_b   27.91577322
_cell_length_c   16.97246147
_cell_angle_alpha   90.00000000
_cell_angle_beta   90.00000000
_cell_angle_gamma   90.00000000
_symmetry_Int_Tables_number   1
_chemical_formula_structural   CuH9C13O4
_chemical_formula_sum   'Cu16 H144 C208 O64'
_cell_volume   5718.58520163
_cell_formula_units_Z   16
loop_
 _symmetry_equiv_pos_site_id
 _symmetry_equiv_pos_as_xyz
  1  'x, y, z'
loop_
 _atom_site_type_symbol
 _atom_site_label
 _atom_site_symmetry_multiplicity
 _atom_site_fract_x
 _atom_site_fract_y
 _atom_site_fract_z
 _atom_site_occupancy
  C  C0  1  0.16075472  0.14764545  0.19390714  1
  C  C1  1  0.16916149  0.13666447  0.11231520  1
  C  C2  1  0.13049016  0.06225960  0.21045525  1
  C  C3  1  0.15187869  0.05213909  0.13026278  1
  C  C4  1  0.17679114  0.09017169  0.08295774  1
  H  H5  1  0.45757254  0.19924843  0.08820817  1
  C  C6  1  0.19135433  0.17647324  0.05097140  1
  Cu  Cu7  1  0.07907359  0.18466266  0.44422868  1
  O  O8  1  0.42417441  0.08724623  0.25155927  1
  O  O9  1  0.13889654  0.16011630  0.35048994  1
  Cu  Cu10  1  0.39966261  0.10703981  0.35488100  1
  H  H11  1  0.15991647  0.18510369  0.21400701  1
  C  C12  1  0.13414329  0.11702929  0.32871322  1
  H  H13  1  0.11808037  0.03393536  0.25487180  1
  H  H14  1  0.37925736  0.21754638  0.16846778  1
  C  C15  1  0.14360707  0.10738389  0.24337306  1
  H  H16  1  0.19569060  0.08601679  0.01866314  1
  C  C17  1  0.28554755  0.20674891  0.05588445  1
  O  O18  1  0.10800487  0.08117728  0.36789661  1
  C  C19  1  0.37627398  0.19322805  0.11602400  1
  O  O20  1  0.30229402  0.02234980  0.39925755  1
  H  H21  1  0.36419325  0.15397760  0.13686795  1
  Cu  Cu22  1  0.19781237  0.05769022  0.45963988  1
  O  O23  1  0.36914881  0.13650972  0.45062608  1
  C  C24  1  0.48008535  0.05046012  0.23481030  1
  C  C25  1  0.15678772  0.00196499  0.10171623  1
  O  O26  1  0.43613397  0.00800015  0.24528852  1
  H  H27  1  0.19686955  0.12270543  0.87288479  1
  C  C28  1  0.27722440  0.23216684  0.72257020  1
  C  C29  1  0.22973042  0.14796010  0.82452372  1
  C  C30  1  0.06807732  0.23473027  0.69342333  1
  C  C31  1  0.13628521  0.16792463  0.77094239  1
  C  C32  1  0.02175413  0.09281240  0.79519025  1
  C  C33  1  0.43175609  0.13235486  0.58672494  1
  C  C34  1  0.15967967  0.21089065  0.72880650  1
  H  H35  1  0.27873987  0.17723833  0.85428309  1
  O  O36  1  0.30617484  0.01319171  0.73013243  1
  H  H37  1  0.17624662  0.08752218  0.73408194  1
  H  H38  1  0.29214901  0.12513289  0.78997241  1
  C  C39  1  0.11302460  0.06622054  0.76919039  1
  C  C40  1  0.12904023  0.01736340  0.78239110  1
  C  C41  1  0.00585393  0.15071824  0.99478104  1
  H  H42  1  0.40262054  0.06682905  0.65037674  1
  H  H43  1  0.29457901  0.24194626  0.66190818  1
  C  C44  1  0.36859669  0.11553510  0.51807213  1
  C  C45  1  0.44196335  0.10294871  0.65155653  1
  O  O46  1  0.31167184  0.07875582  0.52362463  1
  O  O47  1  0.10010125  0.08266798  0.53806543  1
  C  C48  1  0.10607208  0.22556769  0.94835729  1
  H  H49  1  0.33847224  0.20249648  0.73619804  1
  C  C50  1  0.02908418  0.14519750  0.77085486  1
  O  O51  1  0.49335572  0.04362024  0.79405304  1
  H  H52  1  0.46714535  0.20290195  0.53763946  1
  C  C53  1  0.00611390  0.23389390  0.89344053  1
  H  H54  1  0.03901026  0.11379973  0.98715310  1
  O  O55  1  0.00442496  0.14949536  0.52318494  1
  C  C56  1  0.01137328  0.10284616  0.52080227  1
  H  H57  1  0.00144354  0.20267892  0.85388465  1
  H  H58  1  0.48162588  0.24268728  0.78316677  1
  C  C59  1  0.47929786  0.17935141  0.58490523  1
  C  C60  1  0.10911747  0.18345414  0.99140461  1
  H  H61  1  0.10556462  0.35777506  0.44379386  1
  O  O62  1  0.16330214  0.36895474  0.13141267  1
  C  C63  1  0.08487730  0.39287297  0.11897105  1
  H  H64  1  0.04245290  0.29574429  0.11306849  1
  C  C65  1  0.33720699  0.29772129  0.05457043  1
  C  C66  1  0.09985993  0.33209492  0.49586020  1
  C  C67  1  0.03865940  0.29038859  0.49251024  1
  O  O68  1  0.08591084  0.43982143  0.11782949  1
  H  H69  1  0.36081034  0.29478120  0.12002673  1
  C  C70  1  0.27185507  0.25434212  0.02142296  1
  Cu  Cu71  1  0.02531810  0.47849661  0.19289362  1
  H  H72  1  0.40986019  0.30508202  0.01842091  1
  H  H73  1  0.28156020  0.32935963  0.05065537  1
  H  H74  1  0.01375227  0.25647869  0.21931605  1
  C  C75  1  0.06562416  0.33550109  0.91446212  1
  O  O76  1  0.43640958  0.35565244  0.80924497  1
  H  H77  1  0.20069925  0.32207104  0.68786935  1
  C  C78  1  0.24920325  0.36755629  0.83294685  1
  O  O79  1  0.05863977  0.45158626  0.57703310  1
  C  C80  1  0.09056863  0.27175135  0.62792780  1
  C  C81  1  0.18394561  0.26213764  0.96848021  1
  C  C82  1  0.22855721  0.38302919  0.55998816  1
  C  C83  1  0.16427565  0.31029052  0.92581251  1
  O  O84  1  0.36410145  0.41840492  0.75196813  1
  O  O85  1  0.46590151  0.47681597  0.57582056  1
  C  C86  1  0.03344685  0.26094301  0.55856154  1
  C  C87  1  0.15785876  0.31226170  0.63296804  1
  C  C88  1  0.16366688  0.33968897  0.56499545  1
  C  C89  1  0.25920765  0.33062917  0.88886840  1
  Cu  Cu90  1  0.25677049  0.43944103  0.68105299  1
  H  H91  1  0.34273020  0.31480663  0.89788566  1
  C  C92  1  0.35528586  0.37933302  0.79433594  1
  H  H93  1  0.13958839  0.42613787  0.79152694  1
  C  C94  1  0.15086053  0.39213929  0.82281179  1
  O  O95  1  0.29065299  0.39231928  0.62116677  1
  C  C96  1  0.05874205  0.37500384  0.86394573  1
  O  O97  1  0.22452834  0.41178530  0.50341532  1
  Cu  Cu98  1  0.18572549  0.47790689  0.52545358  1
  O  O99  1  0.20641904  0.49259170  0.74030406  1
  H  H100  1  0.00851217  0.26865520  0.85688985  1
  H  H101  1  0.28686920  0.26332429  0.75991628  1
  O  O102  1  0.45560649  0.74750255  0.14308409  1
  H  H103  1  0.03862345  0.66010361  0.05750234  1
  C  C104  1  0.27026585  0.55964196  0.46768900  1
  C  C105  1  0.04010125  0.70019920  0.05559255  1
  C  C106  1  0.11769706  0.66364590  0.37668473  1
  C  C107  1  0.13877158  0.72148434  0.02307077  1
  C  C108  1  0.04703095  0.63875379  0.32576697  1
  H  H109  1  0.23725368  0.65378605  0.46805616  1
  C  C110  1  0.09557648  0.73627095  0.46305808  1
  C  C111  1  0.26696095  0.72279145  0.26862633  1
  H  H112  1  0.11243942  0.52332241  0.37154339  1
  C  C113  1  0.10350623  0.56249357  0.37455228  1
  C  C114  1  0.14283758  0.71764468  0.38931439  1
  C  C115  1  0.18098006  0.63442788  0.42731618  1
  H  H116  1  0.24836536  0.68422947  0.25879094  1
  C  C117  1  0.18219459  0.58406362  0.42241718  1
  C  C118  1  0.21453962  0.74592104  0.34157491  1
  H  H119  1  0.09413103  0.60861692  0.02700528  1
  C  C120  1  0.03919072  0.58947138  0.32222588  1
  H  H121  1  0.23145149  0.73827166  0.21144136  1
  H  H122  1  0.36017578  0.72657784  0.26340712  1
  C  C123  1  0.35173985  0.71176759  0.01362968  1
  O  O124  1  0.28672103  0.51541628  0.46747870  1
  O  O125  1  0.33830693  0.58834297  0.49972183  1
  C  C126  1  0.23833433  0.69319708  0.00005156  1
  C  C127  1  0.22665160  0.64650836  0.96597535  1
  C  C128  1  0.10848871  0.62373254  0.96447137  1
  H  H129  1  0.43260264  0.68764422  0.76974491  1
  C  C130  1  0.03933154  0.72931229  0.76666303  1
  H  H131  1  0.33659865  0.59167883  0.80005999  1
  H  H132  1  0.09669404  0.59515213  0.91982995  1
  C  C133  1  0.47607037  0.65304347  0.77465813  1
  C  C134  1  0.29990610  0.58520085  0.85897156  1
  Cu  Cu135  1  0.47442989  0.57584850  0.53561875  1
  C  C136  1  0.18366004  0.53263531  0.71011515  1
  O  O137  1  0.24189613  0.55142542  0.65594296  1
  H  H138  1  0.12564457  0.62433445  0.66303248  1
  C  C139  1  0.10106152  0.56348977  0.74692126  1
  C  C140  1  0.41767021  0.65026092  0.91548038  1
  C  C141  1  0.08462916  0.60960619  0.71816406  1
  C  C142  1  0.04473373  0.54821177  0.81318224  1
  O  O143  1  0.48038848  0.69820555  0.62945806  1
  H  H144  1  0.17609889  0.68047816  0.82293545  1
  Cu  Cu145  1  0.35532114  0.51531070  0.61445733  1
  H  H146  1  0.21492946  0.57543698  0.84962129  1
  C  C147  1  0.31216098  0.62815181  0.91584758  1
  C  C148  1  0.13617860  0.71770178  0.82182220  1
  H  H149  1  0.06729118  0.51187834  0.83603993  1
  H  H150  1  0.09766972  0.72856986  0.88080968  1
  H  H151  1  0.34598400  0.55296340  0.88380128  1
  C  C152  1  0.44000384  0.68970771  0.97003024  1
  H  H153  1  0.03967482  0.65129558  0.95971801  1
  C  C154  1  0.48963692  0.62927602  0.84556884  1
  H  H155  1  0.20662429  0.74177601  0.81322232  1
  H  H156  1  0.02346207  0.66526395  0.50479084  1
  C  C157  1  0.01433135  0.63976251  0.76065392  1
  C  C158  1  0.01953358  0.70684691  0.51366605  1
  H  H159  1  0.02996622  0.71690539  0.57876958  1
  O  O160  1  0.24470974  0.96973280  0.31434323  1
  C  C161  1  0.27627382  0.98033543  0.38243979  1
  H  H162  1  0.39487984  0.79553161  0.29501258  1
  H  H163  1  0.37973335  0.84844344  0.36260042  1
  C  C164  1  0.23792956  0.89565897  0.42173233  1
  O  O165  1  0.14749831  0.99186534  0.03036099  1
  C  C166  1  0.25625887  0.79170122  0.37440063  1
  O  O167  1  0.17181934  0.97186959  0.15548368  1
  H  H168  1  0.19502527  0.88911980  0.36462760  1
  H  H169  1  0.02360836  0.94584647  0.35741030  1
  H  H170  1  0.30378670  0.76273172  0.10960283  1
  C  C171  1  0.05023676  0.79649258  0.02817717  1
  C  C172  1  0.27973617  0.94073492  0.44014315  1
  Cu  Cu173  1  0.29497166  0.98729991  0.21083599  1
  C  C174  1  0.20552552  0.80975625  0.44620729  1
  C  C175  1  0.24943336  0.85709289  0.47603421  1
  H  H176  1  0.40840588  0.78370432  0.04746912  1
  C  C177  1  0.34631388  0.81506237  0.34070945  1
  C  C178  1  0.37542268  0.75129673  0.07161738  1
  O  O179  1  0.44634676  0.82761934  0.16024604  1
  C  C180  1  0.13405120  0.78141018  0.49090710  1
  C  C181  1  0.48487476  0.79014311  0.17998782  1
  H  H182  1  0.49223078  0.88013078  0.46707897  1
  C  C183  1  0.14635763  0.77056116  0.01050922  1
  C  C184  1  0.04291797  0.84735865  0.01282809  1
  H  H185  1  0.15932293  0.78582049  0.61930462  1
  C  C186  1  0.34106805  0.90731008  0.56676802  1
  O  O187  1  0.23953704  0.94917274  0.79112786  1
  O  O188  1  0.45984993  0.95200366  0.64763829  1
  H  H189  1  0.31310181  0.82895587  0.58343655  1
  O  O190  1  0.12557833  0.86917962  0.98595697  1
  O  O191  1  0.37648817  0.89066033  0.70109865  1
  C  C192  1  0.10664302  0.80208481  0.57223967  1
  C  C193  1  0.40312010  0.91444704  0.64170344  1
  Cu  Cu194  1  0.38314712  0.92191195  0.80934189  1
  C  C195  1  0.30214008  0.86160141  0.54838127  1
  H  H196  1  0.37095664  0.97870223  0.52767124  1
  H  H197  1  0.03952579  0.95513736  0.82704232  1
  C  C198  1  0.33270691  0.94542736  0.51448188  1
  H  H199  1  0.02161566  0.82253011  0.84724449  1
  H  H200  1  0.22221763  0.78930777  0.98823294  1
  H  H201  1  0.13274494  0.84128981  0.57259057  1
  C  C202  1  0.22820447  0.99316303  0.76618524  1
  H  H203  1  0.14408902  0.80985173  0.79497458  1
  H  H204  1  0.04287523  0.85138571  0.75288468  1
  C  C205  1  0.00335281  0.77587595  0.74257047  1
  H  H206  1  0.01693644  0.79989147  0.59044657  1
  C  C207  1  0.05784015  0.81862073  0.78624876  1
  Cu  Cu208  1  0.45921466  0.99384734  0.72857105  1
  C  C209  1  0.04124605  0.99408446  0.81953169  1
  Cu  Cu210  1  0.12648200  0.93216049  0.99967486  1
  C  C211  1  0.74664965  0.16886753  0.05440370  1
  C  C212  1  0.91713894  0.07911806  0.48493943  1
  C  C213  1  0.63615692  0.01124732  0.17662665  1
  H  H214  1  0.65188446  0.01840160  0.40350091  1
  C  C215  1  0.84436920  0.24351307  0.09045595  1
  C  C216  1  0.82709059  0.10670308  0.45865867  1
  O  O217  1  0.54923400  0.08930371  0.38282642  1
  H  H218  1  0.76563380  0.22203930  0.48790858  1
  C  C219  1  0.58611796  0.05571651  0.19481035  1
  C  C220  1  0.78434908  0.14833529  0.12535987  1
  C  C221  1  0.87209986  0.15223133  0.26346657  1
  H  H222  1  0.83181412  0.14581565  0.46843165  1
  C  C223  1  0.77085291  0.21778574  0.03939180  1
  C  C224  1  0.72862857  0.03595775  0.42395882  1
  C  C225  1  0.63301873  0.11591709  0.40258482  1
  C  C226  1  0.84903132  0.17416934  0.18246867  1
  C  C227  1  0.73167106  0.08520991  0.43055548  1
  C  C228  1  0.81744679  0.00739009  0.44855381  1
  O  O229  1  0.96359394  0.22920786  0.41049924  1
  H  H230  1  0.95335990  0.13002996  0.26206895  1
  C  C231  1  0.73820280  0.09822833  0.14151424  1
  H  H232  1  0.96752014  0.15677997  0.05313156  1
  C  C233  1  0.80063053  0.05686974  0.12873264  1
  C  C234  1  0.63325350  0.09927829  0.17618953  1
  H  H235  1  0.59209496  0.13196598  0.18714339  1
  H  H236  1  0.88376657  0.05672363  0.10364645  1
  H  H237  1  0.87329228  0.17770151  0.31352716  1
  C  C238  1  0.87186121  0.22374562  0.16718862  1
  C  C239  1  0.91098795  0.02925414  0.47881865  1
  H  H240  1  0.63049014  0.23359078  0.45794429  1
  O  O241  1  0.64264088  0.15675070  0.38954573  1
  C  C242  1  0.74219390  0.01539748  0.14691769  1
  H  H243  1  0.81005147  0.12351270  0.27639091  1
  H  H244  1  0.98200205  0.00569652  0.49535355  1
  H  H245  1  0.58827595  0.13916939  0.00908620  1
  H  H246  1  0.69633385  0.09691407  0.00816466  1
  O  O247  1  0.79377174  0.00504717  0.70160321  1
  H  H248  1  0.61378491  0.23570405  0.83603968  1
  H  H249  1  0.82479690  0.11433594  0.72302518  1
  H  H250  1  0.85257279  0.02212037  0.72578989  1
  H  H251  1  0.97547164  0.23162164  0.55737246  1
  O  O252  1  0.77862355  0.01469044  0.90274902  1
  C  C253  1  0.93755489  0.07090689  0.84157643  1
  H  H254  1  0.60448465  0.17374020  0.77012942  1
  C  C255  1  0.55392961  0.16416213  0.71775225  1
  C  C256  1  0.95239186  0.02206815  0.84626733  1
  H  H257  1  0.87350135  0.09100311  0.87103075  1
  C  C258  1  0.81866271  0.15381476  0.73855990  1
  C  C259  1  0.54747857  0.19392023  0.65021375  1
  H  H260  1  0.77017503  0.17277238  0.69153432  1
  C  C261  1  0.72252417  0.23993652  0.96334574  1
  O  O262  1  0.56708334  0.10956765  0.83888107  1
  H  H263  1  0.77953097  0.15735219  0.79731087  1
  H  H264  1  0.92539167  0.23160783  0.92855441  1
  C  C265  1  0.95503337  0.22163846  0.71723574  1
  C  C266  1  0.93739120  0.17492651  0.74516806  1
  C  C267  1  0.50325969  0.12088986  0.71606156  1
  H  H268  1  0.73967030  0.21753012  0.91251989  1
  H  H269  1  0.81825867  0.24180455  0.64692378  1
  C  C270  1  0.51720929  0.08866804  0.78848359  1
  H  H271  1  0.63220319  0.24174387  0.97178657  1
  C  C272  1  0.60860131  0.24022394  0.64666893  1
  H  H273  1  0.66137829  0.18568780  0.52949120  1
  H  H274  1  0.69074690  0.14507078  0.93162913  1
  C  C275  1  0.67639517  0.13573905  0.99673493  1
  H  H276  1  0.94952755  0.15712977  0.94155047  1
  C  C277  1  0.68035030  0.22281409  0.51237127  1
  H  H278  1  0.69319315  0.30846510  0.04601108  1
  C  C279  1  0.97137598  0.31716971  0.09431603  1
  C  C280  1  0.97803258  0.36626263  0.09438639  1
  C  C281  1  0.88615218  0.39334861  0.07199921  1
  H  H282  1  0.91104984  0.43204809  0.06816110  1
  C  C283  1  0.78518239  0.37283687  0.04512826  1
  C  C284  1  0.77518910  0.32342914  0.05481513  1
  H  H285  1  0.89804842  0.29774521  0.20346934  1
  C  C286  1  0.86823863  0.29623695  0.07969943  1
  H  H287  1  0.70449982  0.34755273  0.46571438  1
  C  C288  1  0.69362143  0.40057105  0.00772618  1
  H  H289  1  0.78522764  0.29204396  0.44913519  1
  C  C290  1  0.76431749  0.32337192  0.49366814  1
  O  O291  1  0.96290891  0.30154674  0.36290833  1
  C  C292  1  0.97908710  0.27415579  0.41479448  1
  C  C293  1  0.92294009  0.26139678  0.22260267  1
  H  H294  1  0.90689912  0.25474820  0.28986500  1
  O  O295  1  0.70602666  0.44835013  0.00092994  1
  H  H296  1  0.57854388  0.36127238  0.80770475  1
  C  C297  1  0.73472251  0.38707367  0.63343425  1
  C  C298  1  0.70744165  0.33472087  0.64198060  1
  C  C299  1  0.65864542  0.31667901  0.71176261  1
  O  O300  1  0.86347531  0.38452426  0.87422962  1
  C  C301  1  0.94723185  0.39764655  0.84735892  1
  C  C302  1  0.66721748  0.34880694  0.78557333  1
  O  O303  1  0.95082142  0.43508493  0.79686909  1
  H  H304  1  0.71862070  0.33227945  0.83252877  1
  H  H305  1  0.91904661  0.38422321  0.63835240  1
  C  C306  1  0.85398040  0.45194273  0.60080935  1
  H  H307  1  0.89568547  0.29278857  0.68100778  1
  Cu  Cu308  1  0.78754914  0.47814217  0.92648440  1
  C  C309  1  0.66013775  0.46094926  0.59507563  1
  C  C310  1  0.63860956  0.41333040  0.61787089  1
  H  H311  1  0.98865147  0.32176172  0.94128641  1
  H  H312  1  0.56043760  0.39543601  0.61514407  1
  C  C313  1  0.61476850  0.26915423  0.71482592  1
  C  C314  1  0.96335243  0.47390133  0.57968673  1
  H  H315  1  0.54351630  0.29132133  0.83075609  1
  C  C316  1  0.84145345  0.40470447  0.62653025  1
  C  C317  1  0.71333727  0.30489079  0.57261945  1
  H  H318  1  0.71178310  0.38189217  0.76912325  1
  C  C319  1  0.56144362  0.25968092  0.79473918  1
  H  H320  1  0.84279000  0.34505799  0.50803636  1
  C  C321  1  0.86241851  0.25732436  0.69763297  1
  C  C322  1  0.76776516  0.48200979  0.58641890  1
  Cu  Cu323  1  0.83574384  0.47334047  0.77377867  1
  O  O324  1  0.61804888  0.38071740  0.97930375  1
  C  C325  1  0.66903459  0.25950189  0.58067356  1
  C  C326  1  0.56583518  0.49145198  0.57508652  1
  H  H327  1  0.74688967  0.27858461  0.95376914  1
  H  H328  1  0.80766456  0.26215951  0.74954438  1
  C  C329  1  0.95163307  0.72740006  0.07855421  1
  H  H330  1  0.60549972  0.70539951  0.22172488  1
  O  O331  1  0.71995655  0.64822135  0.29906313  1
  Cu  Cu332  1  0.80062786  0.62895494  0.21644590  1
  O  O333  1  0.80419923  0.68559076  0.40367731  1
  C  C334  1  0.68918278  0.73201957  0.32126467  1
  H  H335  1  0.82738465  0.65051437  0.40248504  1
  O  O336  1  0.84207206  0.66007915  0.12067620  1
  C  C337  1  0.73733890  0.68559078  0.33911328  1
  C  C338  1  0.84122132  0.70508464  0.10858221  1
  O  O339  1  0.76352096  0.73030908  0.11711880  1
  C  C340  1  0.62189358  0.73789032  0.25481825  1
  O  O341  1  0.93196258  0.58622425  0.20683755  1
  C  C342  1  0.97567940  0.56307505  0.26119641  1
  O  O343  1  0.96848251  0.51805602  0.26951310  1
  H  H344  1  0.99095447  0.65983655  0.28683921  1
  H  H345  1  0.92948187  0.71193763  0.49773480  1
  H  H346  1  0.60897079  0.69283276  0.03030846  1
  H  H347  1  0.74355086  0.66084531  0.62184890  1
  C  C348  1  0.82995444  0.65225159  0.64461581  1
  C  C349  1  0.95676402  0.62481806  0.82987495  1
  C  C350  1  0.67238843  0.52721137  0.80100129  1
  C  C351  1  0.89120468  0.69656168  0.67795515  1
  H  H352  1  0.63927466  0.57777298  0.66498291  1
  O  O353  1  0.67391875  0.51134101  0.87035213  1
  C  C354  1  0.59540230  0.59252987  0.71481620  1
  H  H355  1  0.90137337  0.65061897  0.86056198  1
  C  C356  1  0.59998213  0.56952023  0.78867921  1
  H  H357  1  0.81777777  0.62520924  0.69672524  1
  C  C358  1  0.52350632  0.63060010  0.70839224  1
  O  O359  1  0.54042343  0.63227499  0.57061667  1
  C  C360  1  0.98024988  0.68994626  0.73260403  1
  C  C361  1  0.51388682  0.65796611  0.63157179  1
  H  H362  1  0.87592271  0.63102350  0.59799026  1
  C  C363  1  0.90814073  0.55964500  0.92584616  1
  C  C364  1  0.96892843  0.57642281  0.85286263  1
  O  O365  1  0.90849273  0.51285934  0.94154781  1
  O  O366  1  0.86275376  0.58624207  0.97142427  1
  H  H367  1  0.67371138  0.73403571  0.62891899  1
  C  C368  1  0.85732511  0.74282621  0.65413925  1
  H  H369  1  0.77585713  0.51668275  0.55347189  1
  O  O370  1  0.58757518  0.53545784  0.56230847  1
  C  C371  1  0.55023846  0.58665473  0.85532268  1
  H  H372  1  0.55706496  0.57177192  0.91456676  1
  O  O373  1  0.95560933  0.51567697  0.56514665  1
  C  C374  1  0.56037020  0.70521406  0.97763532  1
  O  O375  1  0.73135038  0.51252770  0.74571620  1
  H  H376  1  0.61310490  0.69204956  0.92581886  1
  H  H377  1  0.75280420  0.73495008  0.54257404  1
  C  C378  1  0.75143603  0.74996676  0.60293381  1
  H  H379  1  0.55485123  0.74500755  0.98169636  1
  O  O380  1  0.75741511  0.93302212  0.14132148  1
  C  C381  1  0.95388722  0.77622087  0.06071110  1
  C  C382  1  0.67182528  0.81719728  0.35718413  1
  H  H383  1  0.94299364  0.85084221  0.28815225  1
  C  C384  1  0.71731040  0.86278260  0.39578354  1
  C  C385  1  0.70648834  0.77039792  0.37548880  1
  H  H386  1  0.88206949  0.79782710  0.07339934  1
  C  C387  1  0.59909212  0.82086978  0.29347545  1
  O  O388  1  0.95009804  0.86755692  0.02713719  1
  C  C389  1  0.85189088  0.85399626  0.28068999  1
  H  H390  1  0.83560963  0.87138918  0.22568307  1
  H  H391  1  0.80697603  0.81898983  0.27680897  1
  H  H392  1  0.95107808  0.93589839  0.26674226  1
  O  O393  1  0.89977957  0.97319610  0.09476846  1
  C  C394  1  0.84977013  0.92739726  0.37252347  1
  C  C395  1  0.80694977  0.96941274  0.13199053  1
  C  C396  1  0.80392337  0.88321116  0.35112868  1
  H  H397  1  0.59822654  0.97545987  0.18784065  1
  C  C398  1  0.79588722  0.95335726  0.43583583  1
  C  C399  1  0.57236745  0.78255307  0.24249452  1
  H  H400  1  0.55716342  0.85583926  0.28338161  1
  C  C401  1  0.71389270  0.93238164  0.48541702  1
  H  H402  1  0.75951003  0.76528074  0.42786465  1
  C  C403  1  0.67057719  0.88656563  0.46186131  1
  C  C404  1  0.94162067  0.95089862  0.32573686  1
  C  C405  1  0.56460424  0.86426177  0.49776623  1
  H  H406  1  0.92996197  0.99202329  0.32110998  1
  Cu  Cu407  1  0.92097920  0.93270195  0.00560793  1
  H  H408  1  0.55658097  0.82627198  0.48219231  1
  C  C409  1  0.88029937  0.87371935  0.66965294  1
  H  H410  1  0.70576592  0.99731432  0.56526787  1
  O  O411  1  0.53233859  0.90082244  0.82956360  1
  C  C412  1  0.72323381  0.91101163  0.73618014  1
  C  C413  1  0.84849203  0.82978576  0.70604409  1
  C  C414  1  0.86056195  0.96591368  0.66982200  1
  H  H415  1  0.73578100  0.78898749  0.60016541  1
  H  H416  1  0.73015297  0.79094028  0.78295288  1
  C  C417  1  0.75085018  0.82429783  0.75015236  1
  C  C418  1  0.68837973  0.86579267  0.76067148  1
  C  C419  1  0.82084056  0.91513473  0.69254645  1
  H  H420  1  0.68395812  0.94395424  0.76084801  1
  C  C421  1  0.90962258  0.78270046  0.69303119  1
  O  O422  1  0.94468349  0.97655948  0.63618471  1
  H  H423  1  0.66284729  0.93894740  0.61019404  1
  H  H424  1  0.55149578  0.86936771  0.56213187  1
  C  C425  1  0.57957547  0.85897773  0.80721850  1
  O  O426  1  0.54125754  0.82156649  0.82430360  1
  O  O427  1  0.88272367  0.94921118  0.90183872  1
  H  H428  1  0.95513820  0.87567469  0.63195620  1
  C  C429  1  0.86226518  0.99384231  0.88678830  1
  C  C430  1  0.66112584  0.96087774  0.55410899  1
  H  H431  1  0.57321764  0.97003829  0.54385382  1
