# generated using pymatgen
data_Zn3H4(C5O4)4
_symmetry_space_group_name_H-M   'P 1'
_cell_length_a   12.48147797
_cell_length_b   16.51416633
_cell_length_c   29.01186883
_cell_angle_alpha   90.00000000
_cell_angle_beta   90.00000000
_cell_angle_gamma   90.00000000
_symmetry_Int_Tables_number   1
_chemical_formula_structural   Zn3H4(C5O4)4
_chemical_formula_sum   'Zn24 H32 C160 O128'
_cell_volume   5979.96131167
_cell_formula_units_Z   8
loop_
 _symmetry_equiv_pos_site_id
 _symmetry_equiv_pos_as_xyz
  1  'x, y, z'
loop_
 _atom_site_type_symbol
 _atom_site_label
 _atom_site_symmetry_multiplicity
 _atom_site_fract_x
 _atom_site_fract_y
 _atom_site_fract_z
 _atom_site_occupancy
  O  O0  1  0.31351826  0.08390715  0.21687503  1
  O  O1  1  0.11650862  0.27173361  0.07897564  1
  Zn  Zn2  1  0.10663057  0.16989161  0.02888506  1
  O  O3  1  0.33219011  0.43571217  0.03646577  1
  C  C4  1  0.03068104  0.29743895  0.09820677  1
  O  O5  1  0.10043423  0.02412996  0.03720223  1
  C  C6  1  0.06815098  0.10551220  0.12762174  1
  C  C7  1  0.29857113  0.15867865  0.22076189  1
  O  O8  1  0.13991947  0.12648399  0.10128631  1
  O  O9  1  0.07688662  0.03518233  0.14519112  1
  Zn  Zn10  1  0.16628234  0.40920002  0.05590820  1
  O  O11  1  0.28196435  0.20602877  0.18863118  1
  H  H12  1  0.24973644  0.30243819  0.23591542  1
  O  O13  1  0.21447012  0.48354084  0.11422279  1
  Zn  Zn14  1  0.48207808  0.04731104  0.21433963  1
  O  O15  1  0.01286358  0.37129751  0.09577036  1
  C  C16  1  0.27798827  0.33115295  0.30640633  1
  C  C17  1  0.40829932  0.08869641  0.32095618  1
  C  C18  1  0.34722831  0.33897430  0.39406481  1
  H  H19  1  0.39652069  0.19753667  0.38230825  1
  C  C20  1  0.13290094  0.13057220  0.46072367  1
  C  C21  1  0.36210321  0.17114107  0.31000686  1
  Zn  Zn22  1  0.16185520  0.47151947  0.39967446  1
  O  O23  1  0.21154811  0.45893676  0.32740099  1
  O  O24  1  0.01291418  0.38491721  0.41426749  1
  H  H25  1  0.09030775  0.17587373  0.37945642  1
  C  C26  1  0.28087776  0.27994342  0.26856608  1
  C  C27  1  0.32423006  0.29856391  0.34657516  1
  C  C28  1  0.36629054  0.22116046  0.35031763  1
  O  O29  1  0.44396609  0.34719763  0.40562509  1
  O  O30  1  0.19021998  0.17338197  0.43556674  1
  C  C31  1  0.02078682  0.14078452  0.39195317  1
  C  C32  1  0.31602998  0.19947426  0.27049454  1
  C  C33  1  0.22299584  0.41073576  0.29535824  1
  C  C34  1  0.02835325  0.11228756  0.43718900  1
  O  O35  1  0.27110416  0.36825704  0.41666802  1
  O  O36  1  0.43016051  0.03977201  0.29059004  1
  O  O37  1  0.03217205  0.20012589  0.30688701  1
  O  O38  1  0.44469801  0.08053365  0.36068982  1
  O  O39  1  0.19685578  0.42246863  0.25399050  1
  H  H40  1  0.40117215  0.02997935  0.66733494  1
  O  O41  1  0.05434380  0.21132645  0.70640407  1
  C  C42  1  0.03765417  0.00046661  0.66439248  1
  O  O43  1  0.07116187  0.18219586  0.63494911  1
  O  O44  1  0.42322055  0.31114439  0.65300509  1
  Zn  Zn45  1  0.07747988  0.13944035  0.55933259  1
  C  C46  1  0.05050207  0.15780927  0.67674128  1
  O  O47  1  0.15572108  0.04675551  0.60386317  1
  O  O48  1  0.39691808  0.12383691  0.72463645  1
  C  C49  1  0.01158855  0.07035601  0.68951925  1
  O  O50  1  0.16656848  0.11263413  0.50075949  1
  C  C51  1  0.49192050  0.31197904  0.62358648  1
  C  C52  1  0.49128023  0.14298325  0.71676683  1
  C  C53  1  0.49237162  0.03312604  0.66347113  1
  O  O54  1  0.23595927  0.11198565  0.99665096  1
  O  O55  1  0.39518768  0.28984397  0.82957218  1
  Zn  Zn56  1  0.45796738  0.44085783  0.93376801  1
  O  O57  1  0.29196743  0.13884504  0.92689291  1
  C  C58  1  0.23584973  0.09747778  0.95349216  1
  O  O59  1  0.11236859  0.28102416  0.98751028  1
  O  O60  1  0.37658526  0.34033363  0.89667562  1
  C  C61  1  0.41432239  0.28742614  0.87070396  1
  C  C62  1  0.16937261  0.02974658  0.88242043  1
  H  H63  1  0.43080170  0.15392776  0.83394391  1
  C  C64  1  0.05207414  0.34014846  0.97640986  1
  H  H65  1  0.22272653  0.07281153  0.86454948  1
  O  O66  1  0.08334539  0.40967462  0.99016745  1
  C  C67  1  0.16895325  0.03375074  0.93100607  1
  O  O68  1  0.20113734  0.03282705  0.79249212  1
  C  C69  1  0.47535348  0.14563287  0.86715209  1
  C  C70  1  0.47641223  0.21530245  0.89373081  1
  Zn  Zn71  1  0.34354351  0.01219404  0.75954627  1
  C  C72  1  0.48093913  0.00037236  0.85180900  1
  O  O73  1  0.46591546  0.02398234  0.81032509  1
  C  C74  1  0.36127163  0.50368929  0.02382585  1
  C  C75  1  0.48476936  0.81136264  0.14264494  1
  Zn  Zn76  1  0.08018555  0.93615097  0.10247117  1
  C  C77  1  0.26760770  0.61157175  0.08249162  1
  C  C78  1  0.25710485  0.69486587  0.08980413  1
  C  C79  1  0.21953110  0.55799684  0.11947219  1
  C  C80  1  0.37724433  0.64802154  0.01828989  1
  C  C81  1  0.48532003  0.55581140  0.17649112  1
  H  H82  1  0.21080099  0.71726239  0.11950469  1
  C  C83  1  0.41123645  0.70091609  0.19019204  1
  C  C84  1  0.36753797  0.73230920  0.02147107  1
  Zn  Zn85  1  0.25777697  0.52228236  0.21663069  1
  C  C86  1  0.33067200  0.58498745  0.04395864  1
  O  O87  1  0.18728402  0.58672759  0.15722417  1
  C  C88  1  0.32894031  0.69295496  0.23079501  1
  O  O89  1  0.32866318  0.89586785  0.05734941  1
  O  O90  1  0.20992665  0.85576770  0.10529902  1
  C  C91  1  0.28029585  0.84044581  0.07587892  1
  H  H92  1  0.36667148  0.82594045  0.19452576  1
  C  C93  1  0.41521082  0.78121954  0.17634104  1
  C  C94  1  0.30426494  0.75337767  0.06084707  1
  O  O95  1  0.42954340  0.51921472  0.20423278  1
  O  O96  1  0.44373679  0.94315597  0.17331741  1
  C  C97  1  0.47803598  0.64494039  0.16789415  1
  C  C98  1  0.07672227  0.97157364  0.00723499  1
  C  C99  1  0.49258871  0.90339316  0.14331336  1
  O  O100  1  0.02983868  0.91171793  0.02137511  1
  O  O101  1  0.26765920  0.74665924  0.23963832  1
  O  O102  1  0.32201384  0.62562101  0.24931411  1
  O  O103  1  0.40386036  0.90634724  0.39970615  1
  O  O104  1  0.44214287  0.54661726  0.45455806  1
  O  O105  1  0.09861315  0.59021637  0.40296311  1
  C  C106  1  0.17659141  0.63726665  0.47600395  1
  C  C107  1  0.34532846  0.56500278  0.44506569  1
  O  O108  1  0.30547164  0.54803995  0.40638458  1
  C  C109  1  0.28148889  0.60866947  0.47995187  1
  C  C110  1  0.07847039  0.62751828  0.44055259  1
  O  O111  1  0.39864873  0.83006562  0.34058282  1
  H  H112  1  0.45759165  0.71489817  0.34361703  1
  C  C113  1  0.43853029  0.84276993  0.37877416  1
  C  C114  1  0.17230179  0.69381217  0.55716289  1
  C  C115  1  0.28329807  0.67050190  0.55761306  1
  C  C116  1  0.09241517  0.72532894  0.59108076  1
  H  H117  1  0.04102166  0.69265787  0.51041320  1
  O  O118  1  0.37869048  0.91297402  0.63377293  1
  O  O119  1  0.11534481  0.73693382  0.63256519  1
  O  O120  1  0.33114611  0.71860713  0.63478263  1
  O  O121  1  0.45126310  0.66573696  0.58914746  1
  Zn  Zn122  1  0.23982810  0.83411627  0.64035523  1
  C  C123  1  0.35526863  0.68522182  0.59823765  1
  H  H124  1  0.41558231  0.60657480  0.52313717  1
  O  O125  1  0.12968215  0.91706839  0.61133444  1
  C  C126  1  0.47244546  0.90918727  0.61874633  1
  C  C127  1  0.33178772  0.62684755  0.52276611  1
  O  O128  1  0.23390835  0.82837368  0.72082101  1
  C  C129  1  0.31786262  0.82975757  0.74500354  1
  H  H130  1  0.01312101  0.87504662  0.66885772  1
  O  O131  1  0.48778491  0.86191654  0.58668277  1
  O  O132  1  0.37804516  0.88927826  0.74128233  1
  C  C133  1  0.11086547  0.98830346  0.62444824  1
  C  C134  1  0.12539648  0.67523023  0.51236018  1
  O  O135  1  0.11256679  0.69759615  0.74572455  1
  C  C136  1  0.04623969  0.92430474  0.92804411  1
  C  C137  1  0.49417408  0.70082405  0.81976400  1
  C  C138  1  0.10164610  0.98027804  0.95451970  1
  C  C139  1  0.41837603  0.78456190  0.98496939  1
  O  O140  1  0.02208160  0.79777156  0.83269616  1
  C  C141  1  0.11791120  0.97011846  0.85539097  1
  C  C142  1  0.34670991  0.75653803  0.77287695  1
  H  H143  1  0.42844801  0.63254223  0.98756495  1
  C  C144  1  0.33611439  0.62432448  0.80965514  1
  C  C145  1  0.46078319  0.55560186  0.86123591  1
  O  O146  1  0.41918602  0.86240234  0.98328106  1
  C  C147  1  0.28958864  0.68215131  0.78049924  1
  H  H148  1  0.28947966  0.56598956  0.81879839  1
  H  H149  1  0.49185112  0.82130166  0.78542943  1
  C  C150  1  0.05446294  0.91334252  0.88032431  1
  O  O151  1  0.46434261  0.74978057  0.95267031  1
  C  C152  1  0.43661711  0.62910274  0.83029269  1
  C  C153  1  0.13688771  0.97736753  0.80500222  1
  C  C154  1  0.45116440  0.76299453  0.79229551  1
  Zn  Zn155  1  0.08671889  0.81268743  0.76483776  1
  O  O156  1  0.47279631  0.92732364  0.86155782  1
  O  O157  1  0.08756284  0.93626492  0.77500546  1
  O  O158  1  0.38869203  0.51326892  0.87761100  1
  O  O159  1  0.43662951  0.50683347  0.99482007  1
  C  C160  1  0.17861692  0.65132620  0.76686552  1
  O  O161  1  0.14908548  0.58372760  0.77585545  1
  O  O162  1  0.71315351  0.03857415  0.21341917  1
  C  C163  1  0.68634476  0.30028471  0.17331900  1
  O  O164  1  0.68079561  0.36501782  0.15009007  1
  C  C165  1  0.70070107  0.10814344  0.19514221  1
  O  O166  1  0.60426917  0.12718435  0.19217417  1
  C  C167  1  0.77612155  0.23969662  0.15919129  1
  H  H168  1  0.84396967  0.34108215  0.12208925  1
  H  H169  1  0.89805348  0.05473688  0.17268565  1
  C  C170  1  0.78748523  0.15882406  0.17209234  1
  Zn  Zn171  1  0.70616391  0.48864231  0.17816354  1
  C  C172  1  0.85800616  0.27670246  0.13451572  1
  C  C173  1  0.96862637  0.15686662  0.13779781  1
  O  O174  1  0.61936086  0.28385885  0.20144162  1
  C  C175  1  0.88834122  0.12038014  0.16313648  1
  C  C176  1  0.95798857  0.24014710  0.12396854  1
  O  O177  1  0.54877446  0.27206034  0.00925159  1
  C  C178  1  0.70286336  0.29509273  0.33786089  1
  C  C179  1  0.71313819  0.19644746  0.45414118  1
  C  C180  1  0.85900163  0.04839747  0.42574716  1
  C  C181  1  0.62827307  0.14052222  0.47286435  1
  H  H182  1  0.94370630  0.30275171  0.46973388  1
  O  O183  1  0.61633015  0.26759170  0.32966065  1
  C  C184  1  0.69309929  0.21972857  0.40720531  1
  C  C185  1  0.84762446  0.30826108  0.40543518  1
  C  C186  1  0.75402708  0.27683700  0.38601256  1
  O  O187  1  0.55372615  0.11543718  0.44778119  1
  O  O188  1  0.74321435  0.35311869  0.31228463  1
  C  C189  1  0.84877149  0.08377245  0.38161486  1
  C  C190  1  0.81124552  0.22453825  0.47373623  1
  Zn  Zn191  1  0.76511294  0.47326510  0.34286007  1
  C  C192  1  0.87437082  0.28026696  0.44902361  1
  O  O193  1  0.88288799  0.15414513  0.28115624  1
  H  H194  1  0.62163420  0.20016710  0.38780124  1
  C  C195  1  0.94846096  0.16295030  0.31373859  1
  C  C196  1  0.74944989  0.05063991  0.35929413  1
  Zn  Zn197  1  0.55323123  0.45493619  0.42603046  1
  C  C198  1  0.93553364  0.37297418  0.38978655  1
  O  O199  1  0.91973770  0.41274876  0.35538792  1
  C  C200  1  0.94493278  0.06196057  0.45458074  1
  C  C201  1  0.93391660  0.12780888  0.36207396  1
  O  O202  1  0.72390871  0.06120347  0.31838762  1
  O  O203  1  0.61947696  0.42460338  0.49383832  1
  O  O204  1  0.58270303  0.49993204  0.35734581  1
  Zn  Zn205  1  0.83274135  0.02257572  0.26543030  1
  O  O206  1  0.69042574  0.00729568  0.38539524  1
  H  H207  1  0.79443853  0.00175088  0.43765594  1
  C  C208  1  0.66567037  0.10095814  0.67038546  1
  O  O209  1  0.74067032  0.22717367  0.63418777  1
  C  C210  1  0.72082131  0.03800011  0.65209137  1
  O  O211  1  0.76827914  0.21086503  0.70727923  1
  C  C212  1  0.73014981  0.18596960  0.66992964  1
  C  C213  1  0.93535798  0.07078873  0.72494914  1
  H  H214  1  0.81090474  0.03843352  0.64555083  1
  C  C215  1  0.88167781  0.00090453  0.73866882  1
  Zn  Zn216  1  0.65364059  0.21168154  0.56385528  1
  O  O217  1  0.80761808  0.16592613  0.54888295  1
  C  C218  1  0.93762884  0.01462093  0.50098744  1
  O  O219  1  0.57826934  0.31433716  0.52839475  1
  C  C220  1  0.55838613  0.44577561  0.65667300  1
  C  C221  1  0.55563907  0.39487368  0.61884200  1
  C  C222  1  0.60027833  0.42615369  0.57805444  1
  C  C223  1  0.86049086  0.20476127  0.51871409  1
  C  C224  1  0.55478023  0.09431362  0.68361875  1
  O  O225  1  0.62545182  0.11503756  0.51389653  1
  O  O226  1  0.95496698  0.22394923  0.53098287  1
  C  C227  1  0.59519956  0.38682655  0.53020358  1
  O  O228  1  0.53608119  0.20024445  0.73994514  1
  C  C229  1  0.65832888  0.49889612  0.57696091  1
  H  H230  1  0.51988593  0.42608576  0.68789305  1
  H  H231  1  0.91825048  0.13402774  0.73619342  1
  O  O232  1  0.99950249  0.02322623  0.53479984  1
  O  O233  1  0.51099442  0.24832366  0.59941951  1
  C  C234  1  0.79896166  0.01582685  0.77474937  1
  O  O235  1  0.67259222  0.26768843  0.83202244  1
  C  C236  1  0.50925681  0.06838773  0.88213052  1
  C  C237  1  0.90657591  0.17866597  0.95766244  1
  O  O238  1  0.88704676  0.12109659  0.93487024  1
  O  O239  1  0.78856401  0.08716723  0.79120154  1
  H  H240  1  0.76422942  0.22233511  0.89088548  1
  C  C241  1  0.54730262  0.28461627  0.96788803  1
  O  O242  1  0.70565547  0.38733147  0.80861369  1
  C  C243  1  0.93210734  0.40661831  0.92682409  1
  C  C244  1  0.81564350  0.27532866  0.90054251  1
  Zn  Zn245  1  0.68647440  0.19202280  0.77249483  1
  C  C246  1  0.79655983  0.34916663  0.87640657  1
  C  C247  1  0.71870206  0.33532263  0.83800875  1
  C  C248  1  0.85686479  0.41753480  0.89224433  1
  C  C249  1  0.55612569  0.06415871  0.92743023  1
  C  C250  1  0.52488207  0.20989839  0.93703779  1
  C  C251  1  0.56072101  0.13459244  0.95304173  1
  C  C252  1  0.88975456  0.26563582  0.93460718  1
  O  O253  1  0.57297328  0.35326812  0.95226492  1
  C  C254  1  0.95248876  0.33200393  0.94919545  1
  H  H255  1  0.59131190  0.13247832  0.98935674  1
  H  H256  1  0.97434870  0.46254063  0.93617445  1
  O  O257  1  0.94131053  0.17185083  0.99758445  1
  C  C258  1  0.54785627  0.75432111  0.11791715  1
  O  O259  1  0.85689986  0.52211459  0.15817741  1
  C  C260  1  0.91815443  0.88575292  0.18194887  1
  O  O261  1  0.63624927  0.83302108  0.05481073  1
  C  C262  1  0.62884476  0.76639307  0.07775775  1
  H  H263  1  0.59386572  0.62704167  0.11402219  1
  O  O264  1  0.53858345  0.93596455  0.10956098  1
  O  O265  1  0.90840677  0.61541286  0.10974806  1
  H  H266  1  0.92191711  0.74541371  0.13677502  1
  O  O267  1  0.94780990  0.88717240  0.14027136  1
  O  O268  1  0.69167584  0.71292018  0.06941951  1
  C  C269  1  0.87665810  0.65803169  0.18758827  1
  C  C270  1  0.54715298  0.67398717  0.13223354  1
  O  O271  1  0.90263828  0.95107211  0.20233375  1
  C  C272  1  0.89869632  0.80354611  0.20081420  1
  C  C273  1  0.87797094  0.59630686  0.14734486  1
  C  C274  1  0.90295066  0.73707090  0.17252792  1
  O  O275  1  0.55461441  0.51574134  0.15302562  1
  C  C276  1  0.84822871  0.64437127  0.23416269  1
  O  O277  1  0.78192091  0.50615501  0.24083512  1
  Zn  Zn278  1  0.50483337  0.91568570  0.04124112  1
  C  C279  1  0.87422547  0.78885445  0.24776083  1
  O  O280  1  0.77671526  0.57555280  0.47255224  1
  C  C281  1  0.85875962  0.71149820  0.26489955  1
  O  O282  1  0.91486682  0.91753732  0.28618352  1
  O  O283  1  0.79796165  0.57568036  0.30324382  1
  C  C284  1  0.64786996  0.63986369  0.42084961  1
  O  O285  1  0.98876113  0.65537481  0.44718475  1
  H  H286  1  0.84579564  0.69934119  0.30096619  1
  C  C287  1  0.72277642  0.56999045  0.43897018  1
  C  C288  1  0.64974335  0.70816660  0.44727095  1
  C  C289  1  0.80746643  0.57122261  0.25976489  1
  C  C290  1  0.59744254  0.84172704  0.47612943  1
  C  C291  1  0.55855486  0.57511813  0.34803973  1
  O  O292  1  0.84092130  0.82181992  0.32540534  1
  H  H293  1  0.70307361  0.70029994  0.47806556  1
  O  O294  1  0.54733980  0.90682675  0.47096951  1
  C  C295  1  0.58970796  0.78012148  0.43942624  1
  C  C296  1  0.87625299  0.84726290  0.28931897  1
  C  C297  1  0.57866133  0.64543215  0.38201079  1
  C  C298  1  0.52349313  0.78480997  0.40090204  1
  C  C299  1  0.51917872  0.71504530  0.37347730  1
  O  O300  1  0.51303010  0.58978627  0.31233940  1
  O  O301  1  0.72362077  0.50275945  0.41587572  1
  Zn  Zn302  1  0.52545254  0.99739683  0.41071110  1
  O  O303  1  0.99621663  0.73011888  0.57897199  1
  Zn  Zn304  1  0.57684610  0.75679359  0.57578232  1
  C  C305  1  0.65939641  0.96761426  0.64046313  1
  C  C306  1  0.85895440  0.84413929  0.71855945  1
  O  O307  1  0.70414427  0.67477046  0.57336923  1
  O  O308  1  0.59338787  0.52104021  0.73779008  1
  Zn  Zn309  1  0.86487349  0.76314772  0.62452193  1
  C  C310  1  0.71593859  0.88913648  0.62681511  1
  O  O311  1  0.90786479  0.78610548  0.69788022  1
  O  O312  1  0.66741188  0.82318064  0.62933112  1
  O  O313  1  0.80848519  0.64058323  0.62874464  1
  C  C314  1  0.90621093  0.92639879  0.71739112  1
  C  C315  1  0.60939723  0.56583492  0.70252629  1
  O  O316  1  0.81200251  0.88816193  0.61465397  1
  C  C317  1  0.65477614  0.55326673  0.61483564  1
  C  C318  1  0.73000678  0.62682248  0.60432923  1
  H  H319  1  0.69424481  0.51809809  0.54315603  1
  C  C320  1  0.54835333  0.97081847  0.63966420  1
  O  O321  1  0.62297476  0.63762265  0.70476882  1
  O  O322  1  0.65405878  0.82352642  0.51113567  1
  C  C323  1  0.60839096  0.52130185  0.65506700  1
  C  C324  1  0.98790930  0.93094800  0.68292926  1
  O  O325  1  0.86262838  0.96828341  0.50667761  1
  O  O326  1  0.78603099  0.82728533  0.74710285  1
  O  O327  1  0.81972144  0.50709307  0.82501843  1
  O  O328  1  0.63320523  0.78863134  0.85125435  1
  Zn  Zn329  1  0.77171100  0.83939771  0.82033075  1
  O  O330  1  0.64008899  0.93106560  0.93698518  1
  O  O331  1  0.74410961  0.96178763  0.79215690  1
  C  C332  1  0.60843283  0.71677791  0.83767457  1
  O  O333  1  0.55962660  0.53273022  0.86705728  1
  O  O334  1  0.88789869  0.83348625  0.87303665  1
  O  O335  1  0.66537137  0.65796880  0.84519134  1
  C  C336  1  0.98503543  0.84331261  0.86093735  1
  Zn  Zn337  1  0.54096355  0.83734260  0.90523565  1
  Zn  Zn338  1  0.65753807  0.53109530  0.80853469  1
  C  C339  1  0.60333095  0.99366046  0.95529386  1
  H  H340  1  0.98992667  0.88950059  0.94750080  1
  O  O341  1  0.88967633  0.56072145  0.88532664  1
  O  O342  1  0.60145144  0.99852164  0.99784496  1
  C  C343  1  0.85218164  0.50053626  0.86667342  1
