# generated using pymatgen
data_Cu2H36C61(N3O2)4
_symmetry_space_group_name_H-M   'P 1'
_cell_length_a   11.13289861
_cell_length_b   11.75354326
_cell_length_c   42.64845472
_cell_angle_alpha   90.00000000
_cell_angle_beta   90.00000000
_cell_angle_gamma   90.00000000
_symmetry_Int_Tables_number   1
_chemical_formula_structural   Cu2H36C61(N3O2)4
_chemical_formula_sum   'Cu8 H144 C244 N48 O32'
_cell_volume   5580.59318203
_cell_formula_units_Z   4
loop_
 _symmetry_equiv_pos_site_id
 _symmetry_equiv_pos_as_xyz
  1  'x, y, z'
loop_
 _atom_site_type_symbol
 _atom_site_label
 _atom_site_symmetry_multiplicity
 _atom_site_fract_x
 _atom_site_fract_y
 _atom_site_fract_z
 _atom_site_occupancy
  C  C0  1  0.03926272  0.46975860  0.01059008  1
  C  C1  1  0.07238395  0.00884159  0.13069973  1
  Cu  Cu2  1  0.38904260  0.18338798  0.22894841  1
  C  C3  1  0.23008271  0.34025184  0.01119748  1
  H  H4  1  0.41363750  0.36782766  0.09363778  1
  H  H5  1  0.17349283  0.32298037  0.07131258  1
  N  N6  1  0.11983423  0.22527274  0.12663797  1
  H  H7  1  0.13247275  0.04164861  0.14923049  1
  H  H8  1  0.13625740  0.31155250  0.12374218  1
  O  O9  1  0.30257143  0.25932005  0.19625388  1
  C  C10  1  0.32587709  0.08000531  0.06079880  1
  C  C11  1  0.10250167  0.37510365  0.05863384  1
  H  H12  1  0.16412520  0.13981813  0.03751469  1
  C  C13  1  0.04508148  0.06778565  0.10209147  1
  C  C14  1  0.43312822  0.28599491  0.03776677  1
  C  C15  1  0.26782594  0.41032767  0.16258284  1
  C  C16  1  0.33996866  0.35606011  0.13949719  1
  N  N17  1  0.07370292  0.18274240  0.10179224  1
  C  C18  1  0.12423468  0.40195955  0.02615275  1
  C  C19  1  0.25676945  0.15934619  0.04367963  1
  C  C20  1  0.30840404  0.26443930  0.03370859  1
  C  C21  1  0.25823057  0.35989015  0.19285676  1
  O  O22  1  0.20359986  0.40673230  0.21550149  1
  H  H23  1  0.48170159  0.36137213  0.02992107  1
  C  C24  1  0.35524863  0.41061441  0.11179530  1
  H  H25  1  0.39239248  0.27828570  0.14402836  1
  O  O26  1  0.43492291  0.06700724  0.19693741  1
  C  C27  1  0.44803511  0.10506096  0.06803599  1
  H  H28  1  0.33929820  0.05984134  0.12383655  1
  N  N29  1  0.49966995  0.43104968  0.24762864  1
  C  C30  1  0.38149371  0.49835840  0.00518470  1
  C  C31  1  0.25634673  0.28844297  0.45867011  1
  H  H32  1  0.17738694  0.07092507  0.32994282  1
  C  C33  1  0.17791924  0.12345464  0.42394610  1
  C  C34  1  0.26015184  0.17921884  0.44362553  1
  C  C35  1  0.11501544  0.45180180  0.43744764  1
  O  O36  1  0.26508818  0.31066761  0.27006817  1
  H  H37  1  0.44941318  0.29521627  0.29746618  1
  C  C38  1  0.21659321  0.23465301  0.28858451  1
  C  C39  1  0.10638521  0.06725249  0.40790467  1
  O  O40  1  0.21510255  0.49941587  0.30492488  1
  C  C41  1  0.33773254  0.06786256  0.35960661  1
  C  C42  1  0.26374519  0.11177623  0.33618565  1
  H  H43  1  0.34005794  0.13358242  0.45248590  1
  C  C44  1  0.33098838  0.30083034  0.48925285  1
  C  C45  1  0.18045017  0.37788719  0.44803666  1
  H  H46  1  0.15244470  0.34425181  0.34108231  1
  C  C47  1  0.29885854  0.19316502  0.31418466  1
  C  C48  1  0.07403678  0.39149221  0.35010718  1
  O  O49  1  0.11671616  0.20168371  0.28665417  1
  H  H50  1  0.46818913  0.44036766  0.45530406  1
  H  H51  1  0.14208608  0.14461248  0.48272560  1
  Cu  Cu52  1  0.22259003  0.45970826  0.26024512  1
  C  C53  1  0.41861492  0.23304977  0.31607372  1
  H  H54  1  0.04593689  0.24970821  0.38156176  1
  C  C55  1  0.00935697  0.33074148  0.37160896  1
  C  C56  1  0.45237503  0.11977890  0.36319227  1
  C  C57  1  0.46345852  0.27881609  0.47927681  1
  O  O58  1  0.47940902  0.11961290  0.25747399  1
  C  C59  1  0.49430363  0.19657540  0.34003833  1
  H  H60  1  0.37424115  0.48407007  0.35811527  1
  H  H61  1  0.30362287  0.00497952  0.37665712  1
  H  H62  1  0.30725939  0.46930042  0.41407263  1
  C  C63  1  0.33353271  0.39752533  0.63960617  1
  O  O64  1  0.32900428  0.22582386  0.71069871  1
  H  H65  1  0.27546880  0.47008357  0.64731480  1
  C  C66  1  0.36046451  0.30746129  0.65918098  1
  C  C67  1  0.27461202  0.21798376  0.51378408  1
  H  H68  1  0.30089189  0.17394975  0.59327092  1
  C  C69  1  0.12856665  0.07483222  0.53029120  1
  C  C70  1  0.08231753  0.05543084  0.58717145  1
  C  C71  1  0.26651035  0.16847175  0.56934369  1
  C  C72  1  0.17751514  0.42574240  0.51557108  1
  C  C73  1  0.44401748  0.22249770  0.65199613  1
  Cu  Cu74  1  0.26758219  0.47697449  0.73423499  1
  H  H75  1  0.40265410  0.27956345  0.55038200  1
  C  C76  1  0.32746397  0.22604156  0.54469985  1
  C  C77  1  0.16288452  0.09466438  0.56225162  1
  C  C78  1  0.31182305  0.30185111  0.69327582  1
  O  O79  1  0.23212786  0.38008231  0.69979248  1
  C  C80  1  0.40223800  0.41008416  0.61283957  1
  C  C81  1  0.39586155  0.48652163  0.51767671  1
  C  C82  1  0.49310574  0.32626918  0.60516095  1
  H  H83  1  0.46929300  0.15190080  0.66815080  1
  H  H84  1  0.38821974  0.48449857  0.59718771  1
  C  C85  1  0.01762766  0.01859649  0.60803640  1
  C  C86  1  0.17978478  0.14410310  0.50682604  1
  C  C87  1  0.30380534  0.41557990  0.50584278  1
  H  H88  1  0.46816242  0.11391684  0.50198611  1
  H  H89  1  0.11052689  0.37110367  0.50513243  1
  H  H90  1  0.49212843  0.46878275  0.51152305  1
  H  H91  1  0.05862377  0.01445575  0.52245486  1
  C  C92  1  0.07687066  0.06911379  0.96649963  1
  C  C93  1  0.18999635  0.23309670  0.98843962  1
  H  H94  1  0.38073222  0.06884105  0.94095849  1
  H  H95  1  0.08627765  0.47085546  0.85097665  1
  H  H96  1  0.25758765  0.05328429  0.77262496  1
  C  C97  1  0.08104010  0.17039395  0.98459659  1
  C  C98  1  0.29272117  0.42647951  0.99054516  1
  C  C99  1  0.18229210  0.02961420  0.95147663  1
  H  H100  1  0.35896732  0.19958476  0.86206569  1
  H  H101  1  0.29603176  0.14187855  0.82210701  1
  H  H102  1  0.21822983  0.37357018  0.94583865  1
  C  C103  1  0.36860817  0.08837692  0.81254011  1
  H  H104  1  0.14237640  0.44295034  0.89286741  1
  C  C105  1  0.27963886  0.18744717  0.97137754  1
  C  C106  1  0.28010808  0.43318938  0.95721413  1
  C  C107  1  0.29553760  0.09205873  0.95432039  1
  H  H108  1  0.35659208  0.48000960  0.91100387  1
  O  O109  1  0.37104856  0.45793275  0.76642137  1
  H  H110  1  0.20697775  0.44208291  0.79966679  1
  C  C111  1  0.34537884  0.04170884  0.78438141  1
  N  N112  1  0.43545164  0.22222344  0.90013474  1
  C  C113  1  0.36190005  0.48788032  0.93787979  1
  C  C114  1  0.48415738  0.07069169  0.82772003  1
  C  C115  1  0.23944715  0.49641126  0.81938197  1
  C  C116  1  0.44618633  0.17774714  0.87048326  1
  H  H117  1  0.06041675  0.49236273  0.98551039  1
  C  C118  1  0.21183049  0.87921644  0.16938195  1
  N  N119  1  0.22508091  0.81644673  0.04320102  1
  H  H120  1  0.16661731  0.56840692  0.17901675  1
  H  H121  1  0.12044748  0.93328660  0.02786160  1
  C  C122  1  0.43190074  0.75844343  0.13812597  1
  H  H123  1  0.33662089  0.77934858  0.13685298  1
  H  H124  1  0.01995317  0.65247510  0.21479483  1
  H  H125  1  0.37960006  0.50725213  0.03019070  1
  N  N126  1  0.03060476  0.90843478  0.13554041  1
  C  C127  1  0.08516883  0.86254851  0.16148541  1
  C  C128  1  0.22502191  0.57143262  0.12993581  1
  H  H129  1  0.17634385  0.64967383  0.12406424  1
  C  C130  1  0.18819629  0.73202494  0.20740821  1
  C  C131  1  0.30402231  0.73881548  0.05148624  1
  C  C132  1  0.26435960  0.81615982  0.19316731  1
  C  C133  1  0.06630092  0.71077046  0.20019882  1
  H  H134  1  0.35831647  0.82414521  0.20032400  1
  C  C135  1  0.46573889  0.95163437  0.11520656  1
  N  N136  1  0.20462174  0.89905777  0.02542007  1
  N  N137  1  0.37446770  0.98412037  0.13097397  1
  H  H138  1  0.15750214  0.63288479  0.07705023  1
  C  C139  1  0.29816832  0.51749543  0.10541967  1
  C  C140  1  0.43131382  0.75166681  0.03947287  1
  C  C141  1  0.23712104  0.67573191  0.23461224  1
  N  N142  1  0.33405068  0.57976928  0.08090064  1
  C  C143  1  0.25518425  0.65239361  0.07164089  1
  H  H144  1  0.26229267  0.94268184  0.15443901  1
  H  H145  1  0.38916637  0.60696121  0.16190624  1
  C  C146  1  0.43436323  0.80779745  0.00966847  1
  C  C147  1  0.46765849  0.65846563  0.15402075  1
  O  O148  1  0.17238712  0.60583548  0.24948204  1
  O  O149  1  0.35168020  0.67763736  0.24080738  1
  C  C150  1  0.01635929  0.77199979  0.17560056  1
  C  C151  1  0.21599185  0.52354825  0.15907771  1
  H  H152  1  0.28999198  0.99791387  0.06808679  1
  Cu  Cu153  1  0.41642915  0.61553477  0.27977600  1
  O  O154  1  0.09855588  0.65033004  0.30943033  1
  N  N155  1  0.36238998  0.63431923  0.45207745  1
  H  H156  1  0.19770327  0.66466208  0.46025683  1
  C  C157  1  0.42093932  0.52792533  0.37638601  1
  C  C158  1  0.02528508  0.71572363  0.47652516  1
  C  C159  1  0.38423823  0.52771277  0.40773734  1
  N  N160  1  0.42056333  0.93108792  0.40431316  1
  N  N161  1  0.33696916  0.86052412  0.40584586  1
  C  C162  1  0.02213280  0.99702644  0.39244998  1
  C  C163  1  0.44162531  0.60002391  0.42924157  1
  H  H164  1  0.35705893  0.78292987  0.41838791  1
  H  H165  1  0.13715365  0.90514390  0.42560329  1
  C  C166  1  0.04508586  0.50473061  0.34156069  1
  N  N167  1  0.08612597  0.83712733  0.41802946  1
  H  H168  1  0.46533592  0.91124105  0.46544538  1
  C  C169  1  0.40979155  0.68542438  0.47591672  1
  H  H170  1  0.05640382  0.51801859  0.42798173  1
  O  O171  1  0.49962317  0.55174615  0.31604750  1
  C  C172  1  0.14682859  0.71123399  0.47851303  1
  C  C173  1  0.12329729  0.55704939  0.31758841  1
  N  N174  1  0.01028597  0.87455481  0.39889965  1
  N  N175  1  0.28168201  0.74179906  0.57827240  1
  O  O176  1  0.30153851  0.90897284  0.73327012  1
  H  H177  1  0.09320250  0.71402052  0.61572526  1
  N  N178  1  0.02618515  0.56667657  0.59570654  1
  C  C179  1  0.02558577  0.81252289  0.52938247  1
  O  O180  1  0.18190289  0.61007618  0.71981490  1
  C  C181  1  0.10407042  0.65175838  0.59646134  1
  C  C182  1  0.39798355  0.89332989  0.74493095  1
  C  C183  1  0.20252113  0.81161016  0.65643360  1
  N  N184  1  0.41376611  0.80005581  0.52399383  1
  C  C185  1  0.21980487  0.67015081  0.69658058  1
  H  H186  1  0.00789804  0.75257646  0.71671209  1
  C  C187  1  0.14811826  0.75709908  0.68265613  1
  C  C188  1  0.02204083  0.92454528  0.65176745  1
  N  N189  1  0.35025182  0.82173144  0.58235702  1
  O  O190  1  0.32009233  0.65219274  0.68440749  1
  C  C191  1  0.15335046  0.81115899  0.52796580  1
  H  H192  1  0.28969150  0.78554600  0.64780358  1
  C  C193  1  0.36421314  0.55500433  0.54360949  1
  H  H194  1  0.43047484  0.60419704  0.55697546  1
  C  C195  1  0.20269547  0.65445567  0.57530167  1
  C  C196  1  0.14392243  0.89734465  0.64176038  1
  C  C197  1  0.24131260  0.56859851  0.55180362  1
  Cu  Cu198  1  0.46880476  0.70449093  0.70260515  1
  H  H199  1  0.19134683  0.94010535  0.62244135  1
  C  C200  1  0.03697823  0.79258553  0.69515197  1
  H  H201  1  0.20428267  0.85424410  0.54662876  1
  N  N202  1  0.44456848  0.84181537  0.54889412  1
  O  O203  1  0.47911247  0.82329180  0.73202821  1
  C  C204  1  0.34991035  0.75094375  0.50013845  1
  C  C205  1  0.14238734  0.50538988  0.53717062  1
  H  H206  1  0.04780210  0.52286456  0.54340484  1
  C  C207  1  0.21687279  0.76371601  0.50293930  1
  H  H208  1  0.14273772  0.78868244  0.89834828  1
  C  C209  1  0.21086305  0.91837037  0.93531970  1
  H  H210  1  0.45288167  0.70719489  0.82678867  1
  N  N211  1  0.32441580  0.89246953  0.93846134  1
  N  N212  1  0.01216849  0.90601271  0.91208010  1
  C  C213  1  0.40816071  0.54085017  0.78422680  1
  N  N214  1  0.38802296  0.76575086  0.92780852  1
  H  H215  1  0.12555541  0.85646464  0.85700602  1
  N  N216  1  0.14092391  0.61057262  0.89519903  1
  C  C217  1  0.21142518  0.59755244  0.86846077  1
  C  C218  1  0.12134042  0.86418249  0.91397670  1
  C  C219  1  0.45732926  0.55106940  0.95273620  1
  C  C220  1  0.37534986  0.65474220  0.83342736  1
  C  C221  1  0.31139580  0.67109739  0.86080053  1
  H  H222  1  0.13683538  0.69548005  0.96029702  1
  H  H223  1  0.33614874  0.73859018  0.87817544  1
  H  H224  1  0.02635721  0.78883299  0.81184334  1
  H  H225  1  0.34811248  0.83759323  0.99925919  1
  C  C226  1  0.45795845  0.56363843  0.98646001  1
  C  C227  1  0.02881555  0.83483253  0.85866253  1
  C  C228  1  0.03642950  0.69041941  0.96546214  1
  O  O229  1  0.49791593  0.59886958  0.77655769  1
  H  H230  1  0.02193363  0.85567542  0.99012080  1
  C  C231  1  0.42945710  0.96066213  0.77261641  1
  C  C232  1  0.34484809  0.56117166  0.81306867  1
  N  N233  1  0.49341157  0.79065218  0.92195127  1
  C  C234  1  0.10395244  0.51606160  0.90593807  1
  C  C235  1  0.01341396  0.51144075  0.93082226  1
  C  C236  1  0.17141930  0.51426715  0.84602950  1
  N  N237  1  0.62603237  0.01725531  0.08056140  1
  C  C238  1  0.74304453  0.42676368  0.09909218  1
  C  C239  1  0.99781451  0.41235753  0.07347626  1
  H  H240  1  0.54664011  0.36169036  0.12905630  1
  H  H241  1  0.95465213  0.19164882  0.04892995  1
  C  C242  1  0.73659417  0.08696010  0.15911320  1
  N  N243  1  0.79870342  0.33644818  0.10878248  1
  C  C244  1  0.90350016  0.46910904  0.05676651  1
  Cu  Cu245  1  0.58821909  0.33883418  0.21387523  1
  C  C246  1  0.93747273  0.09733656  0.05083470  1
  H  H247  1  0.65396757  0.43283089  0.10965345  1
  H  H248  1  0.59906135  0.21590405  0.05108677  1
  C  C249  1  0.73409447  0.26696726  0.12612843  1
  C  C250  1  0.87875713  0.03348965  0.02962908  1
  C  C251  1  0.60536673  0.28882833  0.13634131  1
  H  H252  1  0.97915067  0.39839469  0.09828347  1
  C  C253  1  0.61544954  0.10434096  0.16804186  1
  C  C254  1  0.78643645  0.16257192  0.13789110  1
  C  C255  1  0.54025390  0.02644735  0.19193574  1
  H  H256  1  0.87375674  0.13439761  0.12905179  1
  C  C257  1  0.57623681  0.20036762  0.15462386  1
  H  H258  1  0.63471250  0.06531489  0.01532930  1
  O  O259  1  0.55461258  0.46607862  0.18489619  1
  C  C260  1  0.51150673  0.02013853  0.08782629  1
  C  C261  1  0.50249277  0.20089117  0.05234107  1
  C  C262  1  0.98393604  0.01976949  0.07507923  1
  H  H263  1  0.78583892  0.01480097  0.16960971  1
  C  C264  1  0.93100083  0.49872294  0.02495556  1
  C  C265  1  0.78750586  0.49257927  0.07285483  1
  O  O266  1  0.62762163  0.23558690  0.24487818  1
  C  C267  1  0.64065176  0.35663878  0.45188523  1
  C  C268  1  0.63972188  0.16410333  0.47689688  1
  H  H269  1  0.80870649  0.21619143  0.27246560  1
  C  C270  1  0.84610278  0.11121357  0.31504643  1
  H  H271  1  0.99792178  0.26847949  0.42318780  1
  H  H272  1  0.93011495  0.12244774  0.36145648  1
  C  C273  1  0.58126353  0.15703377  0.26231674  1
  C  C274  1  0.90036859  0.28326102  0.42951077  1
  H  H275  1  0.69259555  0.08635116  0.47919458  1
  C  C276  1  0.61556122  0.01090566  0.30304683  1
  C  C277  1  0.79821945  0.01581826  0.33287973  1
  H  H278  1  0.67431525  0.13537600  0.41174149  1
  N  N279  1  0.62584066  0.15636395  0.39366300  1
  C  C280  1  0.94239769  0.03554576  0.36866171  1
  C  C281  1  0.91641923  0.39900149  0.38596739  1
  N  N282  1  0.84969617  0.34494397  0.40695729  1
  C  C283  1  0.66199400  0.10890424  0.28623295  1
  C  C284  1  0.52249477  0.36568423  0.46301048  1
  C  C285  1  0.82785024  0.23346374  0.45332339  1
  N  N286  1  0.87891450  0.15594540  0.47282284  1
  C  C287  1  0.78060852  0.14962442  0.28997462  1
  H  H288  1  0.59533003  0.22738067  0.34198646  1
  C  C289  1  0.69972890  0.25472431  0.46043730  1
  H  H290  1  0.68155473  0.42764444  0.44051095  1
  H  H291  1  0.93943570  0.13774611  0.31909680  1
  C  C292  1  0.51925608  0.17751777  0.48852937  1
  C  C293  1  0.53861530  0.08556145  0.38954990  1
  N  N294  1  0.90938372  0.08789651  0.49314145  1
  C  C295  1  0.63213981  0.27445500  0.56802932  1
  C  C296  1  0.85715539  0.46871922  0.61188085  1
  H  H297  1  0.65953462  0.02448524  0.57876120  1
  C  C298  1  0.61431647  0.22688913  0.73017889  1
  C  C299  1  0.76395471  0.20127670  0.67489084  1
  H  H300  1  0.68951637  0.39499867  0.62810369  1
  C  C301  1  0.77959450  0.29153584  0.69474778  1
  N  N302  1  0.83154869  0.11219306  0.52869304  1
  H  H303  1  0.58633258  0.49096706  0.55440609  1
  H  H304  1  0.81625644  0.19177561  0.65207848  1
  N  N305  1  0.56608941  0.35700443  0.58008826  1
  H  H306  1  0.72748564  0.06288277  0.62942947  1
  C  C307  1  0.59279281  0.13813171  0.71102406  1
  C  C308  1  0.72238587  0.29315018  0.54363478  1
  H  H309  1  0.85360681  0.35195232  0.68934997  1
  C  C310  1  0.66570861  0.12598675  0.68307966  1
  H  H311  1  0.61745345  0.19000208  0.57960718  1
  O  O312  1  0.55991071  0.46731145  0.67273615  1
  N  N313  1  0.78960657  0.20935365  0.53210175  1
  C  C314  1  0.71428644  0.29961663  0.72277578  1
  H  H315  1  0.58792700  0.17052341  0.62220299  1
  H  H316  1  0.86773917  0.41781697  0.59084775  1
  C  C317  1  0.74370649  0.38435353  0.74670331  1
  C  C318  1  0.75930823  0.46102623  0.63181293  1
  C  C319  1  0.72995469  0.40678887  0.52938373  1
  O  O320  1  0.83645947  0.44257206  0.74170532  1
  C  C321  1  0.82962484  0.42256214  0.50673175  1
  H  H322  1  0.51300136  0.08462750  0.71667572  1
  N  N323  1  0.63325709  0.02531745  0.67045602  1
  H  H324  1  0.88378647  0.34627904  0.50082193  1
  C  C325  1  0.51251675  0.23077318  0.62528443  1
  H  H326  1  0.65671662  0.29555582  0.87608205  1
  C  C327  1  0.72231334  0.35981020  0.87002455  1
  H  H328  1  0.56895624  0.23496981  0.75344097  1
  C  C329  1  0.72302411  0.46127247  0.88777282  1
  H  H330  1  0.51979681  0.18525241  0.98248864  1
  C  C331  1  0.87796087  0.44188060  0.83816576  1
  C  C332  1  0.51963285  0.16757574  0.91251442  1
  C  C333  1  0.63369893  0.47128576  0.91690194  1
  C  C334  1  0.57885457  0.12848340  0.97090272  1
  H  H335  1  0.82313191  0.26814383  0.83247637  1
  C  C336  1  0.59492525  0.12020058  0.93656193  1
  C  C337  1  0.80485713  0.34791332  0.84473305  1
  H  H338  1  0.57618820  0.37632776  0.94822596  1
  N  N339  1  0.63907145  0.38028145  0.93090425  1
  C  C340  1  0.96378122  0.42070493  0.80861144  1
  H  H341  1  0.70623115  0.04354590  0.89685211  1
  H  H342  1  0.86379088  0.23593844  0.92202841  1
  C  C343  1  0.69579377  0.05462228  0.92231377  1
  C  C344  1  0.64889191  0.05874169  0.98957840  1
  O  O345  1  0.67541608  0.39846751  0.77073764  1
  N  N346  1  0.96221531  0.41332625  0.93478782  1
  N  N347  1  0.51666025  0.10766529  0.85554046  1
  N  N348  1  0.93040754  0.23324751  0.90487808  1
  H  H349  1  0.99164071  0.02193244  0.96177705  1
  N  N350  1  0.99820710  0.31653093  0.90790450  1
  H  H351  1  0.99806812  0.20165877  0.99426120  1
  O  O352  1  0.99544411  0.32601758  0.80386647  1
  C  C353  1  0.63369422  0.52984665  0.17279444  1
  C  C354  1  0.67922963  0.69931398  0.13953499  1
  N  N355  1  0.71098763  0.57754403  0.06486195  1
  C  C356  1  0.85219423  0.92049579  0.02416413  1
  C  C357  1  0.95675170  0.89836240  0.07327352  1
  C  C358  1  0.59006581  0.62972040  0.15356844  1
  C  C359  1  0.64654007  0.73105769  0.03673736  1
  C  C360  1  0.53633662  0.71155681  0.05288895  1
  H  H361  1  0.77413882  0.68026977  0.13959083  1
  H  H362  1  0.87957359  0.76028324  0.04884143  1
  C  C363  1  0.89883704  0.84795924  0.04804279  1
  H  H364  1  0.98548999  0.85312003  0.09458555  1
  H  H365  1  0.92241974  0.75528494  0.17138237  1
  O  O366  1  0.57633113  0.94036900  0.20332027  1
  H  H367  1  0.70488003  0.86286917  0.11781362  1
  C  C368  1  0.63896653  0.80412742  0.12873170  1
  N  N369  1  0.73621391  0.65424387  0.04322423  1
  C  C370  1  0.65662936  0.81132171  0.01131779  1
  H  H371  1  0.85772747  0.53816066  0.01041973  1
  O  O372  1  0.74031422  0.50710830  0.17267547  1
  N  N373  1  0.71805625  0.96633589  0.08992904  1
  H  H374  1  0.53368701  0.67239761  0.07557997  1
  C  C375  1  0.51639920  0.83938629  0.12743857  1
  H  H376  1  0.78744405  0.98988510  0.07602368  1
  C  C377  1  0.52023409  0.59726032  0.36909380  1
  H  H378  1  0.65584040  0.88387036  0.33802530  1
  C  C379  1  0.79815616  0.84792275  0.45012129  1
  H  H380  1  0.50960000  0.68630773  0.47163982  1
  C  C381  1  0.58590858  0.66442818  0.39028277  1
  H  H382  1  0.66732201  0.71856932  0.38330417  1
  H  H383  1  0.89591952  0.83904195  0.44479950  1
  C  C384  1  0.75360488  0.82387673  0.48119902  1
  C  C385  1  0.56122727  0.90339248  0.46112826  1
  H  H386  1  0.60236534  0.70633216  0.43970957  1
  H  H387  1  0.81651542  0.56552416  0.39036435  1
  H  H388  1  0.78002060  0.91882908  0.40404759  1
  O  O389  1  0.64145551  0.67535267  0.32848103  1
  C  C390  1  0.73482643  0.90399354  0.42630110  1
  C  C391  1  0.60908340  0.92612358  0.43053623  1
  C  C392  1  0.63191376  0.85588130  0.48470773  1
  C  C393  1  0.56276382  0.61092548  0.33580289  1
  C  C394  1  0.55476200  0.66147420  0.42126555  1
  C  C395  1  0.88898253  0.51798702  0.37830875  1
  H  H396  1  0.94546155  0.54742859  0.48256316  1
  H  H397  1  0.98534372  0.68763379  0.45374909  1
  H  H398  1  0.52401864  0.98088232  0.29714792  1
  H  H399  1  0.93890106  0.66492464  0.35199978  1
  N  N400  1  0.52334240  0.52857575  0.25148673  1
  C  C401  1  0.95416395  0.57145741  0.35596501  1
  N  N402  1  0.86260515  0.96866186  0.35550629  1
  C  C403  1  0.68579936  0.96123757  0.32484393  1
  C  C404  1  0.52508817  0.97852902  0.40776920  1
  C  C405  1  0.86116683  0.53263379  0.49651352  1
  C  C406  1  0.79137271  0.71573734  0.56440556  1
  C  C407  1  0.74048690  0.91082160  0.54496665  1
  C  C408  1  0.79373827  0.62810054  0.50704368  1
  H  H409  1  0.58547737  0.83647866  0.50691172  1
  H  H410  1  0.87982301  0.89396641  0.68784361  1
  C  C411  1  0.69553596  0.93927254  0.57432173  1
  C  C412  1  0.70674454  0.85510405  0.60079442  1
  C  C413  1  0.74496886  0.53808255  0.65664883  1
  C  C414  1  0.82518797  0.75775730  0.50650166  1
  H  H415  1  0.81376989  0.68506468  0.68452297  1
  C  C416  1  0.82640995  0.62672006  0.66440881  1
  H  H417  1  0.54073046  0.91098457  0.67860309  1
  C  C418  1  0.68288796  0.61555774  0.52382620  1
  C  C419  1  0.65829246  0.88929613  0.63096373  1
  H  H420  1  0.76278655  0.67563018  0.61357272  1
  C  C421  1  0.93907250  0.56154964  0.61815127  1
  H  H422  1  0.62990005  0.68686271  0.52928211  1
  N  N423  1  0.58815986  0.80731062  0.64639738  1
  C  C424  1  0.67781754  0.99921043  0.64356349  1
  C  C425  1  0.74994048  0.74141218  0.59529844  1
  C  C426  1  0.66297093  0.50686442  0.53737044  1
  C  C427  1  0.92950798  0.63718467  0.64551760  1
  C  C428  1  0.63369712  0.53640366  0.67707346  1
  N  N429  1  0.52803144  0.82977594  0.67145544  1
  C  C430  1  0.78085002  0.79447018  0.53963515  1
  H  H431  1  0.82975574  0.63160564  0.55951007  1
  O  O432  1  0.61985102  0.62055728  0.69810436  1
  H  H433  1  0.97576120  0.83676289  0.54982259  1
  H  H434  1  0.74403291  0.97782457  0.52687530  1
  H  H435  1  0.99778736  0.70562731  0.64889961  1
  C  C436  1  0.97011103  0.86946396  0.67876981  1
  N  N437  1  0.95088455  0.97670952  0.63066083  1
  C  C438  1  0.96601553  0.76271660  0.50293435  1
  O  O439  1  0.86082690  0.71096557  0.78179581  1
  C  C440  1  0.72791764  0.97753874  0.97600276  1
  C  C441  1  0.77364828  0.79633793  0.85987549  1
  C  C442  1  0.85043631  0.78455347  0.98119557  1
  H  H443  1  0.59088084  0.86402000  0.77825426  1
  C  C444  1  0.96374825  0.60521795  0.95221208  1
  H  H445  1  0.79236917  0.52088377  0.94674478  1
  C  C446  1  0.55177888  0.57173003  0.92783348  1
  Cu  Cu447  1  0.65447918  0.54774997  0.78695958  1
  C  C448  1  0.97480989  0.78388852  0.98015255  1
  H  H449  1  0.67925835  0.69558124  0.97205783  1
  C  C450  1  0.79350012  0.72457319  0.80576458  1
  N  N451  1  0.55932579  0.66142229  0.90996341  1
  C  C452  1  0.77759994  0.69215931  0.97041624  1
  C  C453  1  0.97346830  0.79661763  0.83268803  1
  H  H454  1  0.83631932  0.93414975  0.93540633  1
  H  H455  1  0.77562467  0.84742532  0.90836863  1
  C  C456  1  0.84743206  0.78102361  0.83309462  1
  C  C457  1  0.79540732  0.55279968  0.87975155  1
  H  H458  1  0.67979854  0.78158379  0.85915986  1
  C  C459  1  0.82817694  0.83430231  0.88676473  1
  C  C460  1  0.83667342  0.59891567  0.95700298  1
  O  O461  1  0.68639769  0.68913515  0.80576922  1
  H  H462  1  0.80020081  0.62685777  0.89503076  1
  C  C463  1  0.75389393  0.98309961  0.94275775  1
  O  O464  1  0.98272332  0.50655000  0.79000105  1
  C  C465  1  0.53775246  0.93374568  0.78758177  1
  Cu  Cu466  1  0.86377072  0.57602780  0.76296878  1
  H  H467  1  0.92584580  0.61719631  0.84543969  1
  C  C468  1  0.87401533  0.54392622  0.85320060  1
  C  C469  1  0.95840887  0.85335474  0.88688939  1
  H  H470  1  0.54524967  0.88978245  0.97460016  1
  C  C471  1  0.57076866  0.99691613  0.81352968  1
  H  H472  1  0.65703875  0.97726722  0.82645359  1
  C  C473  1  0.76083390  0.87497950  0.99661335  1
  H  H474  1  0.52218588  0.62373504  0.99715852  1
  C  C475  1  0.54324681  0.83912300  0.99637201  1
