# generated using pymatgen
data_ZnH8C16NO4
_symmetry_space_group_name_H-M   'P 1'
_cell_length_a   23.57964913
_cell_length_b   29.66873461
_cell_length_c   8.88856753
_cell_angle_alpha   90.00000000
_cell_angle_beta   90.00000000
_cell_angle_gamma   90.00000000
_symmetry_Int_Tables_number   1
_chemical_formula_structural   ZnH8C16NO4
_chemical_formula_sum   'Zn16 H128 C256 N16 O64'
_cell_volume   6218.24943008
_cell_formula_units_Z   16
loop_
 _symmetry_equiv_pos_site_id
 _symmetry_equiv_pos_as_xyz
  1  'x, y, z'
loop_
 _atom_site_type_symbol
 _atom_site_label
 _atom_site_symmetry_multiplicity
 _atom_site_fract_x
 _atom_site_fract_y
 _atom_site_fract_z
 _atom_site_occupancy
  C  C0  1  0.15036443  0.21888531  0.15624420  1
  C  C1  1  0.26943592  0.10049157  0.20659119  1
  H  H2  1  0.20652864  0.13326340  0.06386888  1
  C  C3  1  0.03877633  0.10829205  0.11821920  1
  C  C4  1  0.25845104  0.17660437  0.40650505  1
  H  H5  1  0.27419087  0.06948466  0.13839656  1
  O  O6  1  0.35474380  0.03981011  0.31278782  1
  C  C7  1  0.07608374  0.10939371  0.24377833  1
  O  O8  1  0.39857421  0.09010628  0.02265385  1
  C  C9  1  0.29614999  0.10313112  0.34827883  1
  C  C10  1  0.11286243  0.14505584  0.24935679  1
  C  C11  1  0.11047031  0.18014010  0.14053525  1
  C  C12  1  0.23301299  0.13635933  0.16982444  1
  C  C13  1  0.03807721  0.14045874  0.00005230  1
  H  H14  1  0.07870484  0.08340934  0.33284751  1
  Zn  Zn15  1  0.42784174  0.03757869  0.15440330  1
  C  C16  1  0.07209958  0.17709946  0.01799479  1
  H  H17  1  0.14864672  0.15108156  0.32681159  1
  C  C18  1  0.34060392  0.07101838  0.40226485  1
  C  C19  1  0.23183217  0.17519404  0.26877443  1
  O  O20  1  0.00289114  0.03822260  0.19317961  1
  C  C21  1  0.20724993  0.22081671  0.23048653  1
  H  H22  1  0.35334737  0.15930149  0.07290729  1
  H  H23  1  0.08589706  0.20769369  0.46303514  1
  C  C24  1  0.29077151  0.13983965  0.44878454  1
  H  H25  1  0.01708642  0.14729664  0.42399523  1
  H  H26  1  0.25209842  0.20787055  0.47042948  1
  C  C27  1  0.12675377  0.14375170  0.76440004  1
  O  O28  1  0.49049868  0.07003135  0.64101546  1
  C  C29  1  0.08640202  0.17946626  0.54214297  1
  C  C30  1  0.25112088  0.18235756  0.80863186  1
  C  C31  1  0.16436893  0.22147446  0.68229175  1
  C  C32  1  0.22211883  0.22156954  0.73593861  1
  H  H33  1  0.09971539  0.07369666  0.79957457  1
  C  C34  1  0.04880344  0.14532297  0.51816260  1
  H  H35  1  0.15678393  0.14144186  0.86480348  1
  C  C36  1  0.28171110  0.10757781  0.77305496  1
  H  H37  1  0.28653158  0.22196661  0.99675222  1
  C  C38  1  0.28694482  0.18981650  0.93796961  1
  Zn  Zn39  1  0.41137851  0.03215078  0.64947547  1
  C  C40  1  0.09397737  0.10562641  0.73308253  1
  H  H41  1  0.21032203  0.13646288  0.64764700  1
  O  O42  1  0.36760030  0.03979314  0.86093423  1
  H  H43  1  0.28054596  0.07666468  0.71175385  1
  C  C44  1  0.05519767  0.10753841  0.61719205  1
  C  C45  1  0.12511184  0.18132259  0.66693660  1
  C  C46  1  0.24228715  0.13969834  0.73529603  1
  C  C47  1  0.36254086  0.07842881  0.92378592  1
  C  C48  1  0.32228891  0.11567633  0.88897139  1
  H  H49  1  0.31054743  0.14043710  0.56773632  1
  C  C50  1  0.32322291  0.15488158  0.97490555  1
  O  O51  1  0.19666468  0.01440207  0.97269024  1
  O  O52  1  0.36496842  0.07656260  0.52739510  1
  H  H53  1  0.01294493  0.13773421  0.89999167  1
  C  C54  1  0.01295167  0.07070661  0.58983381  1
  O  O55  1  0.01408428  0.03827247  0.67536060  1
  H  H56  1  0.07374248  0.20502886  0.93576023  1
  H  H57  1  0.22401157  0.35245253  0.43534475  1
  C  C58  1  0.26699700  0.32633740  0.11795484  1
  C  C59  1  0.09935001  0.41756214  0.43977645  1
  H  H60  1  0.17406675  0.37129594  0.23317031  1
  H  H61  1  0.04051891  0.37800940  0.30553168  1
  C  C62  1  0.31775020  0.32889024  0.20696287  1
  C  C63  1  0.09496169  0.33717344  0.45306951  1
  H  H64  1  0.08335046  0.30385226  0.40326813  1
  Zn  Zn65  1  0.44749626  0.48018382  0.22096127  1
  O  O66  1  0.43746667  0.42351418  0.07941576  1
  C  C67  1  0.22326722  0.29207894  0.16725016  1
  C  C68  1  0.14946356  0.37170885  0.12434247  1
  O  O69  1  0.04402552  0.46397318  0.27174597  1
  O  O70  1  0.09964008  0.49722629  0.43475552  1
  C  C71  1  0.07835919  0.46191379  0.38012309  1
  H  H72  1  0.29977103  0.40669584  0.35470977  1
  C  C73  1  0.35078554  0.38675712  0.04271462  1
  H  H74  1  0.32425314  0.30565836  0.31116555  1
  C  C75  1  0.35849711  0.35945742  0.17254537  1
  C  C76  1  0.07668662  0.37733012  0.38767307  1
  C  C77  1  0.13784794  0.33147422  0.03988644  1
  C  C78  1  0.16673107  0.29033186  0.10622198  1
  O  O79  1  0.39016091  0.43966199  0.37838686  1
  H  H80  1  0.39934973  0.36445020  0.23567818  1
  C  C81  1  0.30698514  0.38317380  0.44140060  1
  H  H82  1  0.13161500  0.44217939  0.14127850  1
  N  N83  1  0.13319588  0.25522292  0.09015027  1
  C  C84  1  0.12449958  0.41148952  0.07255826  1
  N  N85  1  0.24057374  0.25724203  0.24826282  1
  C  C86  1  0.26443470  0.35422576  0.49160984  1
  C  C87  1  0.40061043  0.41428319  0.49253102  1
  O  O88  1  0.04267143  0.46422405  0.77757595  1
  C  C89  1  0.32724630  0.32094052  0.69553300  1
  H  H90  1  0.15370879  0.45078314  0.59519302  1
  H  H91  1  0.06036613  0.37504859  0.75115918  1
  H  H92  1  0.40886848  0.35077018  0.70786909  1
  C  C93  1  0.10003544  0.33342861  0.91537059  1
  C  C94  1  0.35734704  0.38044359  0.52781775  1
  H  H95  1  0.22254986  0.35078349  0.91968088  1
  H  H96  1  0.33478831  0.29591491  0.78513409  1
  C  C97  1  0.08400089  0.37495643  0.85422098  1
  C  C98  1  0.14072177  0.41835396  0.55799500  1
  C  C99  1  0.27425869  0.32424626  0.61705877  1
  C  C100  1  0.09080400  0.41407540  0.93901563  1
  H  H101  1  0.29594449  0.40794931  0.84819081  1
  C  C102  1  0.16818446  0.29451462  0.61262719  1
  H  H103  1  0.08760266  0.30115124  0.86089349  1
  C  C104  1  0.13896609  0.33629148  0.56283718  1
  H  H105  1  0.19844770  0.38094215  0.68725623  1
  C  C106  1  0.22885020  0.29266847  0.65813431  1
  C  C107  1  0.07523322  0.46117293  0.88613025  1
  Zn  Zn108  1  0.44372583  0.47483164  0.74737473  1
  C  C109  1  0.30388483  0.38432242  0.94369252  1
  C  C110  1  0.16134060  0.37881103  0.60820356  1
  C  C111  1  0.36832114  0.35062581  0.65015361  1
  O  O112  1  0.38704209  0.44161008  0.87202782  1
  O  O113  1  0.09120698  0.49492928  0.95988508  1
  N  N114  1  0.13921986  0.25856986  0.63442793  1
  N  N115  1  0.25266943  0.25750157  0.72230168  1
  O  O116  1  0.44329334  0.42136027  0.57396059  1
  C  C117  1  0.39499090  0.41915555  0.99507511  1
  C  C118  1  0.26126417  0.35502892  0.99013320  1
  Zn  Zn119  1  0.05616735  0.55818277  0.48745357  1
  O  O120  1  0.46730224  0.52879352  0.43384302  1
  H  H121  1  0.29844814  0.66261551  0.14229653  1
  H  H122  1  0.45342478  0.60241785  0.26627094  1
  H  H123  1  0.25167508  0.63846116  0.42173940  1
  C  C124  1  0.10048207  0.61268958  0.24742590  1
  H  H125  1  0.41902816  0.68596367  0.24527207  1
  C  C126  1  0.33084468  0.65163278  0.05836845  1
  C  C127  1  0.31855345  0.71711498  0.39926480  1
  O  O128  1  0.07270887  0.62158853  0.36697385  1
  O  O129  1  0.40970734  0.53345826  0.11659134  1
  C  C130  1  0.42355151  0.61805800  0.34855636  1
  O  O131  1  0.09329802  0.57355434  0.19242240  1
  C  C132  1  0.22631658  0.70055425  0.06649846  1
  H  H133  1  0.12742743  0.70062210  0.35405573  1
  C  C134  1  0.15460688  0.68570712  0.26188891  1
  H  H135  1  0.20308661  0.74663958  0.24052306  1
  H  H136  1  0.34629253  0.58710441  0.15759731  1
  C  C137  1  0.35842972  0.61131793  0.07142415  1
  C  C138  1  0.14770256  0.64194666  0.20283525  1
  C  C139  1  0.19493896  0.71322032  0.19669529  1
  C  C140  1  0.40355067  0.66191488  0.33039279  1
  C  C141  1  0.35681553  0.67779254  0.41854674  1
  C  C142  1  0.18261034  0.62684568  0.08522963  1
  C  C143  1  0.26507624  0.72680695  0.48057120  1
  C  C144  1  0.40734226  0.59322604  0.47931515  1
  H  H145  1  0.17868119  0.59149120  0.05264108  1
  C  C146  1  0.21890398  0.65537405  0.01240990  1
  C  C147  1  0.31996971  0.72605274  0.92199256  1
  Zn  Zn148  1  0.04760173  0.55925025  0.97837122  1
  H  H149  1  0.24889257  0.64521883  0.92119465  1
  C  C150  1  0.10282672  0.60895892  0.75933019  1
  O  O151  1  0.40226628  0.52588932  0.60837250  1
  H  H152  1  0.35791877  0.59216011  0.68492940  1
  O  O153  1  0.46288901  0.53470149  0.91129878  1
  H  H154  1  0.12965720  0.69560217  0.84860917  1
  H  H155  1  0.20851557  0.74261557  0.74782647  1
  C  C156  1  0.39786836  0.67204457  0.84917598  1
  C  C157  1  0.42277612  0.63021071  0.86671783  1
  C  C158  1  0.40297689  0.59940289  0.97136081  1
  C  C159  1  0.15698531  0.68367323  0.75079866  1
  O  O160  1  0.07512190  0.62060124  0.86860544  1
  H  H161  1  0.40946836  0.69406580  0.75863326  1
  C  C162  1  0.14830325  0.63903402  0.69824566  1
  H  H163  1  0.31276371  0.67000086  0.64273716  1
  C  C164  1  0.34418704  0.65584464  0.55902607  1
  C  C165  1  0.20091257  0.71010303  0.69452942  1
  C  C166  1  0.35136551  0.68277909  0.94595769  1
  H  H167  1  0.45568984  0.61793730  0.79000266  1
  O  O168  1  0.08965786  0.57083983  0.70472293  1
  C  C169  1  0.36604526  0.61234498  0.57847896  1
  C  C170  1  0.23167597  0.69296991  0.57024178  1
  H  H171  1  0.17706616  0.58417322  0.54395949  1
  C  C172  1  0.22466968  0.64640737  0.52231436  1
  C  C173  1  0.42864606  0.54783784  0.51360048  1
  C  C174  1  0.18310791  0.61973255  0.58244108  1
  C  C175  1  0.42625510  0.55267242  0.99832041  1
  C  C176  1  0.26373908  0.73447700  0.98621654  1
  Zn  Zn177  1  0.06523746  0.98086408  0.20108302  1
  H  H178  1  0.38159537  0.78219498  0.06931760  1
  C  C179  1  0.31320419  0.79161137  0.32350624  1
  C  C180  1  0.38346378  0.81830957  0.11607828  1
  C  C181  1  0.35094464  0.82699157  0.24789091  1
  N  N182  1  0.23750030  0.76559448  0.47960377  1
  C  C183  1  0.38264703  0.90386077  0.25160109  1
  H  H184  1  0.38479465  0.93921819  0.28961242  1
  H  H185  1  0.32455360  0.87538095  0.41819052  1
  C  C186  1  0.34867776  0.87078943  0.31335927  1
  C  C187  1  0.23531245  0.84451368  0.42120321  1
  C  C188  1  0.26195979  0.79922820  0.40761975  1
  O  O189  1  0.02747275  0.92895710  0.07252389  1
  C  C190  1  0.41661557  0.89416119  0.12323560  1
  C  C191  1  0.19743063  0.91374004  0.30413581  1
  C  C192  1  0.22600652  0.87223222  0.29271260  1
  C  C193  1  0.41822389  0.85074295  0.05492929  1
  C  C194  1  0.44927345  0.93248038  0.06968381  1
  H  H195  1  0.24182067  0.85982585  0.18597761  1
  H  H196  1  0.18371692  0.93243133  0.20771051  1
  C  C197  1  0.15190859  0.97032933  0.45749743  1
  O  O198  1  0.44490295  0.96808804  0.14978168  1
  N  N199  1  0.33659994  0.75069556  0.31640693  1
  C  C200  1  0.18281083  0.92821642  0.45059731  1
  O  O201  1  0.13268215  0.98940353  0.33815828  1
  C  C202  1  0.00222083  0.93037327  0.47973284  1
  O  O203  1  0.03890467  0.92920559  0.57925619  1
  C  C204  1  0.36082502  0.90672604  0.64262360  1
  C  C205  1  0.18325772  0.85751165  0.94717278  1
  H  H206  1  0.22763717  0.84211452  0.67306677  1
  C  C207  1  0.40586774  0.81958622  0.70294009  1
  C  C208  1  0.19457476  0.90269041  0.58505321  1
  N  N209  1  0.34338618  0.75768087  0.83048769  1
  O  O210  1  0.43072584  0.97219985  0.53388766  1
  C  C211  1  0.26634876  0.80752767  0.91980303  1
  H  H212  1  0.18215169  0.91448887  0.69753486  1
  C  C213  1  0.41834093  0.89721366  0.61992307  1
  C  C214  1  0.32400476  0.87516572  0.70473804  1
  C  C215  1  0.32096240  0.79746761  0.83761626  1
  H  H216  1  0.41748336  0.78493746  0.71828438  1
  H  H217  1  0.44223668  0.84305952  0.95372403  1
  H  H218  1  0.28053493  0.88502490  0.74018536  1
  C  C219  1  0.34673356  0.83167785  0.73745597  1
  H  H220  1  0.11109817  0.90198036  0.91717355  1
  Zn  Zn221  1  0.06247935  0.98109663  0.73627193  1
  C  C222  1  0.45203766  0.93284771  0.55337550  1
  C  C223  1  0.43966432  0.85079505  0.63650484  1
  C  C224  1  0.24341123  0.85302143  0.95441890  1
  C  C225  1  0.21835335  0.86107291  0.57005365  1
  H  H226  1  0.33994822  0.93952781  0.60671890  1
  O  O227  1  0.13855796  0.98608860  0.58461124  1
  H  H228  1  0.48289062  0.84100975  0.60096091  1
  H  H229  1  0.15609643  0.82715220  0.92574697  1
  C  C230  1  0.15714630  0.89978108  0.93732818  1
  O  O231  1  0.48231580  0.92855224  0.96034099  1
  N  N232  1  0.23731153  0.77366435  0.98245244  1
  C  C233  1  0.27789943  0.89267273  0.98002356  1
  C  C234  1  0.19123570  0.93643782  0.95123193  1
  H  H235  1  0.32587202  0.88830968  0.99150669  1
  C  C236  1  0.16606768  0.98376270  0.94833536  1
  H  H237  1  0.27827915  0.96216470  0.98238132  1
  C  C238  1  0.25088144  0.93332699  0.98069886  1
  O  O239  1  0.10978304  0.98502590  0.94831582  1
  H  H240  1  0.57077020  0.20681498  0.44258406  1
  O  O241  1  0.88651378  0.00515509  0.15487322  1
  C  C242  1  0.84388421  0.09570434  0.22295380  1
  C  C243  1  0.58181971  0.09892903  0.06137316  1
  C  C244  1  0.54588071  0.05723543  0.10097612  1
  C  C245  1  0.64550063  0.16467971  0.43600498  1
  N  N246  1  0.65866290  0.23866313  0.37006619  1
  H  H247  1  0.81384489  0.09963981  0.46122545  1
  C  C248  1  0.74924560  0.06043228  0.19909834  1
  C  C249  1  0.72048161  0.10105768  0.21793543  1
  H  H250  1  0.72162372  0.03020529  0.18501416  1
  H  H251  1  0.67287791  0.10396214  0.22660380  1
  C  C252  1  0.67008026  0.12158471  0.47529456  1
  O  O253  1  0.51797021  0.05797542  0.21943818  1
  C  C254  1  0.73387623  0.18551630  0.28042180  1
  N  N255  1  0.76500723  0.21834513  0.21323454  1
  H  H256  1  0.83959678  0.16889430  0.26235220  1
  C  C257  1  0.81021458  0.05635784  0.19999550  1
  C  C258  1  0.75597590  0.13933165  0.25142830  1
  C  C259  1  0.81697857  0.13635293  0.24541009  1
  C  C260  1  0.68261266  0.19883411  0.36352576  1
  H  H261  1  0.88971940  0.09617987  0.21388005  1
  O  O262  1  0.95740255  0.06916947  0.00285392  1
  H  H263  1  0.56876349  0.13496654  0.26164923  1
  C  C264  1  0.58873174  0.13626545  0.15307421  1
  C  C265  1  0.83179114  0.00950423  0.16058823  1
  H  H266  1  0.71732399  0.11645585  0.46422422  1
  H  H267  1  0.63234664  0.20217581  0.16833470  1
  C  C268  1  0.62552285  0.17035941  0.10220155  1
  Zn  Zn269  1  0.93011431  0.01905735  0.36718001  1
  C  C270  1  0.58732236  0.17341639  0.46848105  1
  C  C271  1  0.99673263  0.07178259  0.09829968  1
  O  O272  1  0.85710583  0.02410323  0.49891175  1
  H  H273  1  0.82464985  0.24890860  0.02964260  1
  O  O274  1  0.97731430  0.07307893  0.48252311  1
  O  O275  1  0.54696987  0.02405139  0.01478549  1
  H  H276  1  0.77691040  0.13300174  0.00781781  1
  C  C277  1  0.60731154  0.09703405  0.91554376  1
  C  C278  1  0.81136464  0.08380959  0.84218887  1
  C  C279  1  0.63665120  0.08792446  0.54204897  1
  H  H280  1  0.66708704  0.12661000  0.76347669  1
  C  C281  1  0.55448841  0.13794286  0.52516169  1
  O  O282  1  0.86274149  0.00386543  0.73822369  1
  C  C283  1  0.77846097  0.14766045  0.61112710  1
  C  C284  1  0.68980462  0.20591748  0.90262827  1
  C  C285  1  0.82052237  0.07516617  0.68843527  1
  C  C286  1  0.80431049  0.10778176  0.57765702  1
  C  C287  1  0.57764352  0.09562728  0.56018886  1
  C  C288  1  0.65327266  0.16831886  0.96711399  1
  C  C289  1  0.76701039  0.15353281  0.77111501  1
  C  C290  1  0.64222582  0.13053004  0.86628320  1
  C  C291  1  0.78520386  0.12330379  0.88609054  1
  O  O292  1  0.55788098  0.01933804  0.62938130  1
  C  C293  1  0.73865135  0.19803081  0.80483813  1
  C  C294  1  0.84923773  0.03308143  0.63916961  1
  N  N295  1  0.76266493  0.23137279  0.72564700  1
  Zn  Zn296  1  0.91541602  0.01181639  0.92143968  1
  N  N297  1  0.67185790  0.24728721  0.92228476  1
  H  H298  1  0.59946945  0.06863810  0.83441333  1
  C  C299  1  0.53967714  0.05868727  0.61347636  1
  H  H300  1  0.76085395  0.17271653  0.53333664  1
  H  H301  1  0.65049229  0.05412764  0.55396274  1
  H  H302  1  0.82528210  0.05835802  0.92749825  1
  H  H303  1  0.50795751  0.14278410  0.54152644  1
  C  C304  1  0.66351449  0.31555512  0.29673212  1
  O  O305  1  0.94285873  0.38279565  0.41479701  1
  Zn  Zn306  1  0.95831584  0.44921175  0.30683683  1
  C  C307  1  0.60819315  0.40038331  0.24364061  1
  C  C308  1  0.78722932  0.29426394  0.18367464  1
  C  C309  1  0.78098745  0.34025312  0.23673103  1
  H  H310  1  0.66093768  0.40278122  0.04133672  1
  C  C311  1  0.86093593  0.35946515  0.07645911  1
  C  C312  1  0.74595277  0.25997864  0.23116188  1
  O  O313  1  0.90285274  0.43341554  0.11531575  1
  H  H314  1  0.75129290  0.34720252  0.33302248  1
  H  H315  1  0.69773982  0.32543500  0.07742369  1
  C  C316  1  0.68972275  0.26971928  0.30383264  1
  H  H317  1  0.87838889  0.31270326  0.39956471  1
  C  C318  1  0.62009082  0.33313354  0.39600762  1
  H  H319  1  0.55854880  0.38317563  0.43740495  1
  C  C320  1  0.67360795  0.34161775  0.16693171  1
  C  C321  1  0.59280951  0.37294925  0.36546975  1
  C  C322  1  0.81544253  0.37261281  0.17446020  1
  O  O323  1  0.59933942  0.46861160  0.11945282  1
  H  H324  1  0.81728248  0.40697290  0.22152311  1
  O  O325  1  0.54212249  0.46141880  0.30535615  1
  C  C326  1  0.58031820  0.44573744  0.22141381  1
  C  C327  1  0.65028653  0.38488339  0.14530824  1
  H  H328  1  0.60670998  0.31378164  0.49609518  1
  C  C329  1  0.82626174  0.28294547  0.06699855  1
  C  C330  1  0.90456954  0.39649845  0.04632397  1
  H  H331  1  0.80685842  0.26231539  0.49591570  1
  C  C332  1  0.85257788  0.32444314  0.49964058  1
  H  H333  1  0.60082834  0.31090366  0.01504005  1
  C  C334  1  0.86455452  0.31586060  0.01687216  1
  C  C335  1  0.60861478  0.33133570  0.91235934  1
  H  H336  1  0.89700190  0.30737382  0.92901348  1
  O  O337  1  0.53538272  0.46445125  0.82912772  1
  C  C338  1  0.86909624  0.36354717  0.57875777  1
  H  H339  1  0.69901681  0.33879454  0.61052135  1
  H  H340  1  0.76911444  0.35866047  0.87194550  1
  C  C341  1  0.91688155  0.39178764  0.53314896  1
  C  C342  1  0.57777143  0.37113470  0.89376267  1
  H  H343  1  0.64806633  0.41290415  0.57719479  1
  O  O344  1  0.59555393  0.46636438  0.64218845  1
  Zn  Zn345  1  0.95492723  0.45412406  0.81584871  1
  C  C346  1  0.78291882  0.30889395  0.69235241  1
  O  O347  1  0.92725078  0.42844109  0.59843396  1
  C  C348  1  0.79390578  0.35129683  0.76842149  1
  H  H349  1  0.54532277  0.38081499  0.98053299  1
  C  C350  1  0.57804173  0.44766439  0.75653783  1
  C  C351  1  0.65443777  0.32012155  0.81409704  1
  C  C352  1  0.59932931  0.40108583  0.78287665  1
  C  C353  1  0.68971815  0.28085344  0.83067783  1
  C  C354  1  0.83884182  0.37645231  0.71490071  1
  C  C355  1  0.80982179  0.29621929  0.55220456  1
  H  H356  1  0.85210091  0.40806561  0.77778996  1
  C  C357  1  0.64176525  0.39041154  0.67598617  1
  C  C358  1  0.66913456  0.34975535  0.69121903  1
  C  C359  1  0.74465213  0.27215026  0.74985420  1
  O  O360  1  0.94075001  0.39068375  0.94613503  1
  C  C361  1  0.59506597  0.58467393  0.24559798  1
  N  N362  1  0.85866386  0.74350298  0.11646841  1
  H  H363  1  0.69298483  0.59470525  0.38532150  1
  O  O364  1  0.55158114  0.57784833  0.16927268  1
  H  H365  1  0.85979506  0.55539859  0.14419790  1
  C  C366  1  0.62574334  0.65138103  0.09956690  1
  C  C367  1  0.68886401  0.61727972  0.29801990  1
  C  C368  1  0.63871433  0.61953211  0.20869246  1
  C  C369  1  0.89683373  0.67354192  0.33112881  1
  C  C370  1  0.92392379  0.63358969  0.37626045  1
  H  H371  1  0.67233918  0.70467592  0.44359944  1
  C  C372  1  0.72025973  0.67838580  0.13655449  1
  C  C373  1  0.84164230  0.62659882  0.13919335  1
  C  C374  1  0.82666272  0.70864209  0.14121498  1
  H  H375  1  0.76915058  0.65692823  0.33658055  1
  C  C376  1  0.86708285  0.58839399  0.19399484  1
  C  C377  1  0.85632592  0.66904128  0.20850462  1
  C  C378  1  0.76709313  0.70797602  0.08812688  1
  C  C379  1  0.72864926  0.65143546  0.27190934  1
  O  O380  1  0.91644529  0.51086088  0.33738633  1
  C  C381  1  0.90883025  0.59126915  0.30905587  1
  C  C382  1  0.93200279  0.54922102  0.37702677  1
  O  O383  1  0.60356791  0.55785469  0.35320786  1
  H  H384  1  0.89896706  0.70595426  0.38575837  1
  H  H385  1  0.81382438  0.62649378  0.04176458  1
  H  H386  1  0.95505687  0.63526151  0.46938348  1
  C  C387  1  0.66882810  0.68119013  0.05264812  1
  O  O388  1  0.97031790  0.55197247  0.47836720  1
  H  H389  1  0.58572657  0.64736877  0.04225999  1
  C  C390  1  0.87286312  0.59776765  0.67967824  1
  C  C391  1  0.92870739  0.55603528  0.87626616  1
  C  C392  1  0.64237540  0.62175047  0.71756914  1
  C  C393  1  0.72514194  0.68685928  0.64001476  1
  C  C394  1  0.84555822  0.63574269  0.62929073  1
  C  C395  1  0.69344632  0.62296240  0.79761470  1
  H  H396  1  0.86785676  0.56748801  0.60507703  1
  C  C397  1  0.76740400  0.72127047  0.58408409  1
  C  C398  1  0.63920454  0.64875931  0.59066524  1
  H  H399  1  0.66342729  0.70273341  0.95669346  1
  O  O400  1  0.60801291  0.56404785  0.87253388  1
  H  H401  1  0.88588495  0.71112326  0.90749817  1
  C  C402  1  0.73392636  0.65403958  0.75918886  1
  H  H403  1  0.69957025  0.59720241  0.87806404  1
  C  C404  1  0.59994741  0.58492562  0.75646384  1
  O  O405  1  0.91497367  0.51837439  0.82251174  1
  C  C406  1  0.90802376  0.64002341  0.89098758  1
  C  C407  1  0.88272010  0.67976884  0.83963223  1
  C  C408  1  0.90675351  0.59881998  0.80773284  1
  C  C409  1  0.85322775  0.67842922  0.70009043  1
  H  H410  1  0.77271370  0.65729588  0.82844632  1
  H  H411  1  0.93391907  0.63898787  0.99669952  1
  O  O412  1  0.56050017  0.57630081  0.66823760  1
  C  C413  1  0.82700581  0.72044915  0.63715303  1
  H  H414  1  0.82073125  0.63427947  0.52672527  1
  N  N415  1  0.74833946  0.73976166  0.99677761  1
  Zn  Zn416  1  0.54882973  0.52062383  0.99494225  1
  C  C417  1  0.67634689  0.68183184  0.54665767  1
  Zn  Zn418  1  0.55217433  0.51717915  0.50691466  1
  H  H419  1  0.60426683  0.64397974  0.51170389  1
  O  O420  1  0.96054827  0.55911953  0.98832436  1
  H  H421  1  0.77479896  0.85629759  0.09516227  1
  O  O422  1  0.60124034  0.90355267  0.11263146  1
  N  N423  1  0.75236150  0.75129944  0.48159988  1
  O  O424  1  0.80105919  0.97752543  0.14458439  1
  C  C425  1  0.92926942  0.81708892  0.10530963  1
  C  C426  1  0.72321396  0.81276595  0.26119577  1
  H  H427  1  0.99992220  0.86074073  0.17433306  1
  C  C428  1  0.75720110  0.86839743  0.44318883  1
  C  C429  1  0.63069738  0.91784131  0.22074469  1
  C  C430  1  0.88103220  0.85215808  0.39638560  1
  C  C431  1  0.71727057  0.89832327  0.39171886  1
  C  C432  1  0.91856545  0.88601888  0.37479422  1
  C  C433  1  0.75839774  0.82350037  0.38554025  1
  H  H434  1  0.65060525  0.83676729  0.12781409  1
  O  O435  1  0.62245868  0.95648922  0.27185471  1
  C  C436  1  0.67608305  0.88756208  0.27437279  1
  C  C437  1  0.68128165  0.84361510  0.21660942  1
  H  H438  1  0.93871579  0.79485613  0.20645120  1
  H  H439  1  0.91509341  0.90856391  0.27438855  1
  H  H440  1  0.72539210  0.77836292  0.22399893  1
  H  H441  1  0.84998684  0.84349171  0.31502866  1
  C  C442  1  0.96222522  0.85524810  0.09725135  1
  C  C443  1  0.78906202  0.78504683  0.46262482  1
  C  C444  1  0.83793198  0.77622259  0.03547532  1
  O  O445  1  0.99665843  0.96242584  0.38491935  1
  H  H446  1  0.71546506  0.93296788  0.43472227  1
  Zn  Zn447  1  0.57775421  0.96411966  0.47659737  1
  C  C448  1  0.96182175  0.89361497  0.48826819  1
  C  C449  1  0.87864738  0.81492856  0.01581073  1
  H  H450  1  0.72000669  0.92214832  0.01076046  1
  O  O451  1  0.62709385  0.91559080  0.61926729  1
  C  C452  1  0.86869659  0.84803241  0.89774521  1
  H  H453  1  0.82977647  0.84117374  0.82213200  1
  Zn  Zn454  1  0.56599733  0.95382953  0.96826244  1
  C  C455  1  0.69255052  0.88943957  0.80137768  1
  C  C456  1  0.69731790  0.85156413  0.70562143  1
  C  C457  1  0.75077008  0.81550132  0.89918116  1
  C  C458  1  0.65096877  0.92322999  0.74173074  1
  H  H459  1  0.73475627  0.78746517  0.67625940  1
  O  O460  1  0.98274044  0.95773790  0.87945357  1
  C  C461  1  0.96655308  0.86330813  0.61261882  1
  C  C462  1  0.73027417  0.81486191  0.75100334  1
  C  C463  1  0.75356951  0.85678956  0.98519386  1
  H  H464  1  0.67834858  0.85069248  0.59295635  1
  C  C465  1  0.92882811  0.82766146  0.64131378  1
  H  H466  1  0.93086321  0.80937698  0.74792127  1
  O  O467  1  0.63779099  0.95808579  0.81718342  1
  C  C468  1  0.90285050  0.88507081  0.88353441  1
  H  H469  1  0.89918853  0.90933160  0.79473776  1
  H  H470  1  0.99766123  0.87626136  0.69713364  1
  C  C471  1  0.72365471  0.89259929  0.93657423  1
  C  C472  1  0.78051550  0.77518323  0.96736832  1
  C  C473  1  0.94844598  0.88830999  0.99102296  1
  H  H474  1  0.78358538  0.87767123  0.54095011  1
  N  N475  1  0.86286524  0.75328270  0.61672432  1
  C  C476  1  0.84233560  0.78730140  0.54031408  1
  C  C477  1  0.88391391  0.82486473  0.53169830  1
  C  C478  1  0.98924588  0.92614985  0.97424929  1
  O  O479  1  0.50404272  0.92594132  0.51768581  1
