# generated using pymatgen
data_Zn4H42C72N6O13
_symmetry_space_group_name_H-M   'P 1'
_cell_length_a   25.30841863
_cell_length_b   13.05815966
_cell_length_c   11.57746433
_cell_angle_alpha   90.00000000
_cell_angle_beta   90.00000000
_cell_angle_gamma   90.00000000
_symmetry_Int_Tables_number   1
_chemical_formula_structural   Zn4H42C72N6O13
_chemical_formula_sum   'Zn8 H84 C144 N12 O26'
_cell_volume   3826.13628428
_cell_formula_units_Z   2
loop_
 _symmetry_equiv_pos_site_id
 _symmetry_equiv_pos_as_xyz
  1  'x, y, z'
loop_
 _atom_site_type_symbol
 _atom_site_label
 _atom_site_symmetry_multiplicity
 _atom_site_fract_x
 _atom_site_fract_y
 _atom_site_fract_z
 _atom_site_occupancy
  O  O0  1  0.18723194  0.48554338  0.11056034  1
  C  C1  1  0.02433507  0.25086410  0.29977357  1
  C  C2  1  0.09076916  0.46327202  0.07942784  1
  C  C3  1  0.03626029  0.11412938  0.10812176  1
  C  C4  1  0.03568240  0.30793846  0.39863910  1
  H  H5  1  0.18026811  0.04123043  0.08533844  1
  H  H6  1  0.12196766  0.22119111  0.04575270  1
  H  H7  1  0.02980547  0.28639213  0.21848093  1
  C  C8  1  0.14906057  0.45335663  0.06355200  1
  C  C9  1  0.16595040  0.02370545  0.42738092  1
  C  C10  1  0.05101137  0.38924999  0.04640411  1
  H  H11  1  0.05552053  0.38121357  0.39429466  1
  H  H12  1  0.07625054  0.13856437  0.14331625  1
  C  C13  1  0.19021675  0.09894706  0.01195628  1
  C  C14  1  0.00569161  0.14778141  0.30567684  1
  O  O15  1  0.16526559  0.07255519  0.34232626  1
  C  C16  1  0.10305919  0.26346985  0.79183919  1
  H  H17  1  0.11068836  0.16617644  0.63349148  1
  C  C18  1  0.02668062  0.09301427  0.99470256  1
  C  C19  1  0.05847427  0.29980773  0.60859829  1
  C  C20  1  0.09240882  0.45684488  0.68641100  1
  C  C21  1  0.13461664  0.19684503  0.85844172  1
  Zn  Zn22  1  0.19849101  0.09313406  0.83085740  1
  C  C23  1  0.09442156  0.23827821  0.67309997  1
  C  C24  1  0.04886534  0.40507330  0.63834202  1
  H  H25  1  0.13124542  0.41571274  0.68649349  1
  C  C26  1  0.24920447  0.30104049  0.90715442  1
  H  H27  1  0.06150586  0.10083505  0.94108818  1
  H  H28  1  0.01006164  0.44154731  0.62722317  1
  H  H29  1  0.22448363  0.27369731  0.83041837  1
  H  H30  1  0.07831899  0.32866693  0.82899252  1
  H  H31  1  0.07526276  0.04132285  0.55072860  1
  C  C32  1  0.14379638  0.17429004  0.97564506  1
  H  H33  1  0.05958290  0.32374782  0.98812753  1
  C  C34  1  0.24928145  0.12306201  0.99729535  1
  H  H35  1  0.16789322  0.40277894  0.98899583  1
  C  C36  1  0.03017321  0.25567320  0.50606506  1
  C  C37  1  0.00732905  0.15458035  0.51122453  1
  H  H38  1  0.10453241  0.61964929  0.15407699  1
  C  C39  1  0.10907212  0.83542182  0.26330441  1
  C  C40  1  0.07002486  0.85608442  0.05671066  1
  C  C41  1  0.15265276  0.79814365  0.33245278  1
  H  H42  1  0.03488228  0.91314119  0.27168641  1
  H  H43  1  0.19906771  0.86547782  0.13823341  1
  O  O44  1  0.19390711  0.75453583  0.31262968  1
  C  C45  1  0.16479746  0.86621499  0.07776929  1
  C  C46  1  0.06130846  0.86439388  0.32083801  1
  H  H47  1  0.00589552  0.64668865  0.18842347  1
  C  C48  1  0.11384419  0.85509947  0.13439434  1
  H  H49  1  0.02299909  0.57637839  0.35067024  1
  C  C50  1  0.07463369  0.56036255  0.13302297  1
  N  N51  1  0.01525678  0.82694895  0.07114110  1
  H  H52  1  0.06741344  0.79431807  0.48630218  1
  C  C53  1  0.02101995  0.57410612  0.15445504  1
  H  H54  1  0.15244837  0.79791798  0.43410621  1
  C  C55  1  0.04453923  0.85185153  0.43598152  1
  O  O56  1  0.08835020  0.60515098  0.42145365  1
  C  C57  1  0.18236330  0.86367087  0.70016644  1
  H  H58  1  0.21318461  0.87611307  0.91966676  1
  C  C59  1  0.19416454  0.89814804  0.59093385  1
  C  C60  1  0.13535028  0.89859816  0.75948644  1
  C  C61  1  0.00767323  0.64108411  0.67959629  1
  C  C62  1  0.04306583  0.61570134  0.76727226  1
  C  C63  1  0.14325793  0.57805219  0.79207444  1
  O  O64  1  0.14513154  0.67322003  0.86294999  1
  H  H65  1  0.09711830  0.62537039  0.57974849  1
  N  N66  1  0.03086458  0.85057842  0.87805211  1
  H  H67  1  0.23245623  0.87584657  0.55422154  1
  H  H68  1  0.01831641  0.83926966  0.65592979  1
  O  O69  1  0.18271573  0.52869826  0.78724224  1
  C  C70  1  0.06533719  0.61847830  0.50988856  1
  C  C71  1  0.09564860  0.95696567  0.70012965  1
  C  C72  1  0.12803204  0.87730924  0.88018127  1
  H  H73  1  0.20880127  0.81145483  0.74701632  1
  C  C74  1  0.15737957  0.96955729  0.53255874  1
  C  C75  1  0.07577431  0.86846648  0.93439488  1
  C  C76  1  0.01126690  0.62056652  0.55738248  1
  C  C77  1  0.09018322  0.55151893  0.74100114  1
  C  C78  1  0.17153932  0.87000077  0.95877175  1
  H  H79  1  0.03024880  0.63231124  0.85274463  1
  H  H80  1  0.10994891  0.69892154  0.84168003  1
  H  H81  1  0.24216591  0.77373705  0.96820232  1
  H  H82  1  0.22218217  0.60195591  0.97301855  1
  H  H83  1  0.05840073  0.97394865  0.74540882  1
  C  C84  1  0.10792992  0.99595531  0.59010899  1
  N  N85  1  0.33127419  0.39306149  0.21075881  1
  O  O86  1  0.41639518  0.18494891  0.36522453  1
  Zn  Zn87  1  0.35875829  0.26907695  0.29899835  1
  H  H88  1  0.35503803  0.16091929  0.15092965  1
  N  N89  1  0.32158871  0.20401203  0.16871691  1
  C  C90  1  0.44513783  0.12437308  0.30040584  1
  C  C91  1  0.29766203  0.44340157  0.00368343  1
  Zn  Zn92  1  0.26500000  0.05642935  0.17480136  1
  C  C93  1  0.30814798  0.37995601  0.10333153  1
  C  C94  1  0.30427203  0.26918450  0.07947934  1
  C  C95  1  0.32800361  0.48129184  0.26318080  1
  H  H96  1  0.36227931  0.00305972  0.33278491  1
  O  O97  1  0.42824487  0.04623608  0.26134837  1
  H  H98  1  0.49902262  0.02801311  0.13053499  1
  C  C99  1  0.26764889  0.40388384  0.91145496  1
  C  C100  1  0.29254929  0.04227391  0.98500317  1
  H  H101  1  0.33163703  0.07606750  0.96966275  1
  O  O102  1  0.30328529  0.23152922  0.67442649  1
  C  C103  1  0.33645814  0.20001854  0.71777375  1
  H  H104  1  0.26359971  0.45714869  0.83801871  1
  C  C105  1  0.27029427  0.23186983  0.99103935  1
  C  C106  1  0.31829696  0.69179113  0.45372224  1
  C  C107  1  0.34192725  0.58757631  0.46917451  1
  H  H108  1  0.41212425  0.73091828  0.01368006  1
  Zn  Zn109  1  0.30525112  0.63524509  0.27379140  1
  C  C110  1  0.47066793  0.73423780  0.22630454  1
  C  C111  1  0.34064355  0.51495528  0.37504345  1
  H  H112  1  0.32337663  0.92742714  0.37756598  1
  O  O113  1  0.44945269  0.72787673  0.31327737  1
  H  H114  1  0.39391696  0.55178529  0.00031151  1
  O  O115  1  0.32658934  0.98682244  0.33604581  1
  O  O116  1  0.30518618  0.77248120  0.48823411  1
  O  O117  1  0.49521136  0.73530403  0.13789126  1
  C  C118  1  0.36077268  0.60005195  0.00465493  1
  C  C119  1  0.37214238  0.70376303  0.00146417  1
  C  C120  1  0.33022256  0.77118583  0.98489797  1
  O  O121  1  0.28923213  0.94236030  0.97897780  1
  H  H122  1  0.36169189  0.56615677  0.55794583  1
  C  C123  1  0.34240960  0.88208769  0.98304064  1
  O  O124  1  0.38241770  0.92605400  0.98550428  1
  C  C125  1  0.26389735  0.62616702  0.98076554  1
  C  C126  1  0.27706328  0.72916390  0.97671198  1
  C  C127  1  0.30854766  0.55728803  0.99400260  1
  C  C128  1  0.68673971  0.18332588  0.07780608  1
  C  C129  1  0.60247637  0.20101054  0.17981134  1
  H  H130  1  0.58717357  0.40527829  0.20975511  1
  H  H131  1  0.66995380  0.09348132  0.32467714  1
  C  C132  1  0.57974429  0.24634444  0.28262034  1
  C  C133  1  0.66240531  0.36091064  0.14743922  1
  H  H134  1  0.59762583  0.31244184  0.32610574  1
  C  C135  1  0.52830900  0.22616522  0.31751629  1
  H  H136  1  0.67686614  0.10284579  0.05659799  1
  C  C137  1  0.71642108  0.39896842  0.11681353  1
  C  C138  1  0.74519509  0.03870481  0.24413918  1
  C  C139  1  0.65071133  0.25151959  0.13512895  1
  N  N140  1  0.62417679  0.42565552  0.18294277  1
  H  H141  1  0.74217353  0.25683040  0.28457406  1
  O  O142  1  0.51980117  0.45524411  0.30074496  1
  C  C143  1  0.57795301  0.10996209  0.13329902  1
  C  C144  1  0.69057444  0.04211360  0.25910417  1
  H  H145  1  0.59624299  0.05215354  0.07598642  1
  C  C146  1  0.73581366  0.22084533  0.04029482  1
  C  C147  1  0.52671372  0.08601133  0.17570000  1
  H  H148  1  0.50656820  0.27534411  0.37927974  1
  H  H149  1  0.72982346  0.44856515  0.33354221  1
  C  C150  1  0.50207916  0.14408208  0.26348127  1
  N  N151  1  0.72800582  0.49619612  0.12731182  1
  O  O152  1  0.58226029  0.02440541  0.86216436  1
  C  C153  1  0.65223357  0.79906547  0.12596234  1
  Zn  Zn154  1  0.68835578  0.63250892  0.16362116  1
  H  H155  1  0.65927790  0.80409885  0.31650156  1
  C  C156  1  0.58739592  0.58558391  0.25615454  1
  C  C157  1  0.68823605  0.88652487  0.13448411  1
  H  H158  1  0.61927936  0.96192653  0.20735762  1
  H  H159  1  0.56247783  0.73152865  0.31554472  1
  C  C160  1  0.74352641  0.88649539  0.10589409  1
  C  C161  1  0.64498407  0.75175242  0.24842333  1
  C  C162  1  0.66222187  0.96552988  0.20081663  1
  H  H163  1  0.65165648  0.51075038  0.44426724  1
  C  C164  1  0.59743516  0.69088042  0.28043886  1
  C  C165  1  0.69266774  0.53928542  0.45840513  1
  C  C166  1  0.60390533  0.78638995  0.05703526  1
  H  H167  1  0.57120885  0.76445959  0.11360047  1
  N  N168  1  0.73597110  0.72222530  0.02700437  1
  C  C169  1  0.62778600  0.52390135  0.20501372  1
  C  C170  1  0.53523140  0.54117380  0.29354966  1
  H  H171  1  0.50476082  0.59539265  0.32790336  1
  C  C172  1  0.73784190  0.50704631  0.39772785  1
  O  O173  1  0.60771419  0.62345835  0.58838377  1
  O  O174  1  0.65695630  0.75569051  0.67547666  1
  C  C175  1  0.61693224  0.77450604  0.74931502  1
  Zn  Zn176  1  0.65775905  0.75367555  0.91594058  1
  C  C177  1  0.58165537  0.83743019  0.94571083  1
  H  H178  1  0.58144358  0.73094226  0.72804041  1
  C  C179  1  0.60863357  0.85289308  0.83588809  1
  C  C180  1  0.64991033  0.66450148  0.59879383  1
  H  H181  1  0.54961077  0.89341815  0.96441160  1
  C  C182  1  0.69617215  0.62558803  0.53247868  1
  C  C183  1  0.61088360  0.96635935  0.80754482  1
  C  C184  1  0.74580890  0.67252533  0.55413873  1
  O  O185  1  0.64185164  0.99035562  0.72742242  1
  H  H186  1  0.91135033  0.06994064  0.21224438  1
  C  C187  1  0.88133658  0.45768212  0.17863102  1
  C  C188  1  0.94362531  0.06918108  0.14701778  1
  C  C189  1  0.93439451  0.05145758  0.03543475  1
  C  C190  1  0.93226685  0.49830216  0.20376709  1
  C  C191  1  0.79548739  0.26004032  0.43645948  1
  C  C192  1  0.84322178  0.27152217  0.02092909  1
  H  H193  1  0.84105533  0.20431744  0.07871848  1
  C  C194  1  0.99321692  0.10588977  0.18687825  1
  C  C195  1  0.80322270  0.34946852  0.00857095  1
  H  H196  1  0.96922321  0.34328863  0.04527027  1
  C  C197  1  0.77456644  0.10499443  0.33174905  1
  C  C198  1  0.83504560  0.47226892  0.25205369  1
  C  C199  1  0.98295318  0.49172880  0.13731118  1
  C  C200  1  0.80776272  0.05374272  0.41157717  1
  C  C201  1  0.76858712  0.21331441  0.34620455  1
  H  H202  1  0.79193019  0.34281428  0.44968869  1
  H  H203  1  0.87837631  0.40724651  0.09818933  1
  H  H204  1  0.85000991  0.02083102  0.20491236  1
  H  H205  1  0.79968901  0.43609667  0.22386480  1
  C  C206  1  0.75240369  0.32387474  0.06181074  1
  C  C207  1  0.99770932  0.39925852  0.07936259  1
  C  C208  1  0.99371383  0.09295571  0.40742115  1
  H  H209  1  0.89313913  0.03141776  0.01117543  1
  C  C210  1  0.89049429  0.38468290  0.89822774  1
  Zn  Zn211  1  0.96374589  0.20147371  0.73891211  1
  O  O212  1  0.88503719  0.18490111  0.67643453  1
  O  O213  1  0.97746439  0.32571092  0.83897823  1
  C  C214  1  0.94392367  0.39847476  0.83955627  1
  H  H215  1  0.85726779  0.05222602  0.57030387  1
  O  O216  1  0.96956180  0.05975506  0.84138293  1
  C  C217  1  0.82702674  0.20560068  0.51203267  1
  H  H218  1  0.97032068  0.04988468  0.61353881  1
  O  O219  1  0.85639665  0.33951996  0.63103981  1
  C  C220  1  0.83416680  0.09579596  0.50472551  1
  C  C221  1  0.85917782  0.24831030  0.61171163  1
  C  C222  1  0.97563398  0.06751726  0.94934141  1
  C  C223  1  0.85343863  0.46542241  0.89011366  1
  C  C224  1  0.80680060  0.44843682  0.95136665  1
  N  N225  1  0.99476004  0.11453501  0.61409730  1
  O  O226  1  0.95251546  0.47643549  0.78257569  1
  C  C227  1  0.88805667  0.29045071  0.95547840  1
  H  H228  1  0.92196361  0.24335622  0.95904223  1
  H  H229  1  0.76287913  0.17028243  0.98740006  1
  H  H230  1  0.84239906  0.91186376  0.11847622  1
  N  N231  1  0.82512557  0.97386666  0.15649176  1
  C  C232  1  0.83864906  0.52167422  0.36415149  1
  N  N233  1  0.98359872  0.57707507  0.37126116  1
  H  H234  1  0.84456822  0.65828111  0.07844069  1
  C  C235  1  0.76632269  0.80672876  0.03871489  1
  H  H236  1  0.76196687  0.52437561  0.09688857  1
  C  C237  1  0.93626658  0.55117019  0.31675069  1
  H  H238  1  0.93693511  0.82702804  0.39124359  1
  C  C239  1  0.77227907  0.96706524  0.16850830  1
  C  C240  1  0.89029723  0.56169067  0.39254613  1
  C  C241  1  0.90205107  0.88031035  0.41132907  1
  C  C242  1  0.99954280  0.90289390  0.48040898  1
  H  H243  1  0.99422770  0.89042540  0.10740700  1
  Zn  Zn244  1  0.81644518  0.89111498  0.41262768  1
  N  N245  1  0.92174665  0.97757046  0.40249572  1
  C  C246  1  0.85718455  0.72316091  0.02469460  1
  H  H247  1  0.93918998  0.67999649  0.06462266  1
  C  C248  1  0.97322155  0.98603026  0.41051721  1
  C  C249  1  0.78996355  0.54930429  0.42582061  1
  C  C250  1  0.91272366  0.73079017  0.01374138  1
  C  C251  1  0.96955914  0.59824298  0.47917998  1
  N  N252  1  0.90981994  0.59442992  0.49924210  1
  C  C253  1  0.79028308  0.63982355  0.49766341  1
  C  C254  1  0.93071840  0.87288610  0.62714469  1
  O  O255  1  0.80334516  0.83659731  0.66249926  1
  C  C256  1  0.83259093  0.85689241  0.58588046  1
  C  C257  1  0.93538844  0.81180300  0.94375951  1
  H  H258  1  0.91969092  0.85385883  0.71694394  1
  H  H259  1  0.91406508  0.94223179  0.83629865  1
  C  C260  1  0.88696505  0.88207598  0.54480760  1
  H  H261  1  0.77442206  0.50613976  0.94865423  1
  H  H262  1  0.75104599  0.72886916  0.62462420  1
  H  H263  1  0.85935615  0.53411047  0.83490599  1
  H  H264  1  0.81610735  0.92910056  0.86697628  1
  C  C265  1  0.99313549  0.82695719  0.95609050  1
  H  H266  1  0.90056430  0.54999492  0.56960592  1
  C  C267  1  0.98524908  0.87015976  0.59656962  1
  C  C268  1  0.89738411  0.87928061  0.88840179  1
  C  C269  1  0.84277787  0.86844226  0.90371256  1
  H  H270  1  0.97022644  0.67715069  0.71158298  1
  H  H271  1  0.82566619  0.68230816  0.52655738  1
  H  H272  1  0.75413005  0.66637374  0.97893992  1
  C  C273  1  0.82061944  0.79942230  0.98300175  1
