# generated using pymatgen
data_CuH6(C2N)6
_symmetry_space_group_name_H-M   'P 1'
_cell_length_a   20.07978970
_cell_length_b   29.30463277
_cell_length_c   7.40611966
_cell_angle_alpha   90.00000000
_cell_angle_beta   90.00000000
_cell_angle_gamma   90.00000000
_symmetry_Int_Tables_number   1
_chemical_formula_structural   CuH6(C2N)6
_chemical_formula_sum   'Cu16 H96 C192 N96'
_cell_volume   4357.98938166
_cell_formula_units_Z   16
loop_
 _symmetry_equiv_pos_site_id
 _symmetry_equiv_pos_as_xyz
  1  'x, y, z'
loop_
 _atom_site_type_symbol
 _atom_site_label
 _atom_site_symmetry_multiplicity
 _atom_site_fract_x
 _atom_site_fract_y
 _atom_site_fract_z
 _atom_site_occupancy
  H  H0  1  0.47016093  0.06842195  0.11807811  1
  C  C1  1  0.16723960  0.10518474  0.16961139  1
  C  C2  1  0.29473862  0.12486474  0.32212745  1
  C  C3  1  0.00705169  0.00790645  0.46992337  1
  N  N4  1  0.13733955  0.18650454  0.18985840  1
  C  C5  1  0.15848307  0.22710434  0.23099005  1
  C  C6  1  0.27743178  0.07697306  0.27573633  1
  C  C7  1  0.40119796  0.10305663  0.37981571  1
  N  N8  1  0.32350522  0.04573188  0.30513872  1
  N  N9  1  0.19483322  0.02195775  0.19216690  1
  C  C10  1  0.18085181  0.15339490  0.22164389  1
  C  C11  1  0.09192062  0.05477815  0.09674157  1
  Cu  Cu12  1  0.03274357  0.13363688  0.47269077  1
  C  C13  1  0.24530134  0.16286427  0.30511970  1
  H  H14  1  0.45094384  0.11671721  0.40231193  1
  C  C15  1  0.21136773  0.06535916  0.21013311  1
  H  H16  1  0.11023932  0.04207888  0.46254896  1
  N  N17  1  0.26544379  0.20450754  0.36224216  1
  N  N18  1  0.10683688  0.09786757  0.10901785  1
  C  C19  1  0.38411055  0.05739901  0.35532171  1
  C  C20  1  0.22075009  0.23669071  0.30973246  1
  N  N21  1  0.35558286  0.13672696  0.37539524  1
  H  H22  1  0.41138176  0.02678999  0.38595093  1
  C  C23  1  0.48608180  0.03225293  0.11417165  1
  C  C24  1  0.13206939  0.01568288  0.13573533  1
  H  H25  1  0.38819307  0.15904028  0.03914038  1
  H  H26  1  0.03854385  0.05690276  0.06439283  1
  C  C27  1  0.45389456  0.11036845  0.73692816  1
  C  C28  1  0.05457361  0.23441681  0.58543975  1
  H  H29  1  0.01943941  0.17697284  0.88154656  1
  C  C30  1  0.19717885  0.04798267  0.63862701  1
  N  N31  1  0.41351067  0.07579242  0.77201179  1
  C  C32  1  0.23514251  0.20506796  0.82276228  1
  H  H33  1  0.43498045  0.14623605  0.75040209  1
  H  H34  1  0.41305286  0.20703562  0.51196446  1
  C  C35  1  0.15090250  0.13579330  0.65572021  1
  C  C36  1  0.43439399  0.03376662  0.73007878  1
  C  C37  1  0.42907749  0.23014637  0.62430768  1
  C  C38  1  0.21285076  0.12199631  0.73811878  1
  N  N39  1  0.23508579  0.07784255  0.72724259  1
  C  C40  1  0.25728752  0.15533894  0.81939887  1
  N  N41  1  0.26978988  0.23894557  0.90201606  1
  H  H42  1  0.21959458  0.01331270  0.65073776  1
  C  C43  1  0.17047334  0.21814284  0.74324240  1
  N  N44  1  0.11350708  0.10460920  0.56064209  1
  C  C45  1  0.34168679  0.17494658  0.97976596  1
  C  C46  1  0.12902351  0.18322150  0.64688137  1
  Cu  Cu47  1  0.31712977  0.07318294  0.88242434  1
  N  N48  1  0.31149679  0.13945712  0.90571693  1
  N  N49  1  0.06713395  0.19045572  0.57233554  1
  N  N50  1  0.45211524  0.20246953  0.75102209  1
  N  N51  1  0.01752025  0.02329234  0.63399457  1
  H  H52  1  0.04987832  0.01865166  0.87856453  1
  C  C53  1  0.32252999  0.22217047  0.97683006  1
  N  N54  1  0.32939358  0.00604806  0.84848249  1
  C  C55  1  0.47911114  0.22616912  0.88650268  1
  C  C56  1  0.13891523  0.06407360  0.55177837  1
  H  H57  1  0.00586962  0.24131896  0.50972459  1
  C  C58  1  0.05613381  0.33296722  0.23601895  1
  C  C59  1  0.15114366  0.34523876  0.38512999  1
  N  N60  1  0.15737158  0.31453801  0.07371599  1
  C  C61  1  0.08522496  0.47526591  0.45870887  1
  C  C62  1  0.27777429  0.43843877  0.20529002  1
  C  C63  1  0.18825725  0.32960623  0.22311606  1
  C  C64  1  0.34621380  0.44788930  0.23813045  1
  N  N65  1  0.36980290  0.48794517  0.21655662  1
  H  H66  1  0.44716597  0.33639770  0.22538090  1
  C  C67  1  0.39303853  0.34037198  0.21712892  1
  N  N68  1  0.08565308  0.34181997  0.39542700  1
  H  H69  1  0.38649095  0.42264626  0.26342338  1
  H  H70  1  0.25473563  0.40425357  0.20268397  1
  N  N71  1  0.23152490  0.46926312  0.17222295  1
  C  C72  1  0.26090975  0.33323419  0.21850267  1
  N  N73  1  0.28917466  0.32646555  0.05276355  1
  C  C74  1  0.29893587  0.34899065  0.37675068  1
  H  H75  1  0.09507304  0.43753177  0.43245120  1
  C  C76  1  0.09173900  0.31615289  0.08730478  1
  N  N77  1  0.36526582  0.35287437  0.37148408  1
  C  C78  1  0.35570014  0.32990163  0.05819388  1
  N  N79  1  0.02289408  0.47931749  0.41295850  1
  H  H80  1  0.24216978  0.27107588  0.34046781  1
  H  H81  1  0.11782801  0.25102437  0.20571181  1
  H  H82  1  0.00206489  0.33774102  0.24620613  1
  N  N83  1  0.49488747  0.47029996  0.03956236  1
  H  H84  1  0.35123228  0.25197136  0.03885260  1
  H  H85  1  0.35503022  0.48128480  0.83581700  1
  C  C86  1  0.19054190  0.39723274  0.81195010  1
  C  C87  1  0.26049393  0.39845880  0.81213031  1
  N  N88  1  0.15658768  0.38575782  0.67075142  1
  H  H89  1  0.15826353  0.41069292  0.92322300  1
  H  H90  1  0.29160359  0.40929319  0.91908982  1
  C  C91  1  0.26278064  0.36635992  0.53715692  1
  C  C92  1  0.09849098  0.26808033  0.66011376  1
  N  N93  1  0.15540808  0.26253425  0.74297550  1
  H  H94  1  0.08981504  0.30422981  0.65723599  1
  C  C95  1  0.48471510  0.27601726  0.88998657  1
  C  C96  1  0.43634768  0.27768341  0.62859452  1
  N  N97  1  0.46646417  0.30194628  0.75238441  1
  N  N98  1  0.29571749  0.38446103  0.67090214  1
  Cu  Cu99  1  0.22735319  0.29750139  0.87051194  1
  C  C100  1  0.18788002  0.36735891  0.53205563  1
  H  H101  1  0.42472613  0.30188174  0.52019928  1
  C  C102  1  0.46988847  0.43684046  0.94245595  1
  H  H103  1  0.47220821  0.38534423  0.71699228  1
  H  H104  1  0.41699198  0.43578899  0.98812848  1
  H  H105  1  0.37388217  0.32427543  0.92415663  1
  H  H106  1  0.07366520  0.30053703  0.95914714  1
  H  H107  1  0.18603909  0.49991768  0.54579808  1
  C  C108  1  0.49665875  0.41454643  0.79044561  1
  C  C109  1  0.20567930  0.54948006  0.14614586  1
  C  C110  1  0.29987833  0.60663519  0.16488020  1
  C  C111  1  0.43040274  0.62142155  0.22634263  1
  C  C112  1  0.38667010  0.65561694  0.17791590  1
  C  C113  1  0.12539849  0.74244999  0.26615650  1
  Cu  Cu114  1  0.45615584  0.51242543  0.22747440  1
  C  C115  1  0.25415954  0.51183913  0.17041519  1
  N  N116  1  0.14209208  0.53943458  0.12370281  1
  C  C117  1  0.12977375  0.61925836  0.05771750  1
  N  N118  1  0.30757284  0.74276517  0.03984122  1
  H  H119  1  0.39282757  0.69288281  0.16145615  1
  C  C120  1  0.34716394  0.56925942  0.20387971  1
  H  H121  1  0.09705638  0.71083130  0.25719932  1
  N  N122  1  0.41225144  0.57855087  0.21222251  1
  C  C123  1  0.32583204  0.52187657  0.18841689  1
  N  N124  1  0.18474140  0.73864387  0.19608418  1
  N  N125  1  0.19174643  0.63252182  0.08288144  1
  H  H126  1  0.48400736  0.62630696  0.25275026  1
  C  C127  1  0.23008396  0.59709232  0.14663352  1
  N  N128  1  0.32318313  0.64950877  0.13139984  1
  C  C129  1  0.10424622  0.57446599  0.08734717  1
  Cu  Cu130  1  0.24946754  0.69074907  0.06465398  1
  C  C131  1  0.00938770  0.52486238  0.42546394  1
  H  H132  1  0.05074771  0.56510646  0.08434375  1
  C  C133  1  0.33457818  0.51475623  0.80031267  1
  C  C134  1  0.27059598  0.52717201  0.74148069  1
  C  C135  1  0.41855188  0.66532737  0.71835195  1
  C  C136  1  0.42780430  0.61886732  0.78056825  1
  C  C137  1  0.29680901  0.64742319  0.65302384  1
  H  H138  1  0.12015463  0.74065240  0.93995043  1
  C  C139  1  0.35310712  0.67916399  0.64381849  1
  C  C140  1  0.30596854  0.59868783  0.70223497  1
  C  C141  1  0.37281633  0.58539078  0.75805282  1
  N  N142  1  0.25352677  0.56871167  0.70810050  1
  N  N143  1  0.11941833  0.55029476  0.56066073  1
  N  N144  1  0.38435508  0.54242516  0.82215668  1
  H  H145  1  0.09535715  0.69798636  0.64962745  1
  Cu  Cu146  1  0.17006240  0.60467994  0.63500550  1
  N  N147  1  0.08458685  0.63530487  0.56764493  1
  H  H148  1  0.22431437  0.50489133  0.73123810  1
  C  C149  1  0.05724501  0.67672215  0.57360072  1
  H  H150  1  0.37961989  0.72126676  0.88693554  1
  Cu  Cu151  1  0.46924294  0.54234422  0.92215967  1
  C  C152  1  0.13288383  0.50769435  0.52830508  1
  N  N153  1  0.46801495  0.69514430  0.74638954  1
  N  N154  1  0.23213284  0.66022083  0.61022847  1
  H  H155  1  0.17563284  0.71540893  0.53655267  1
  N  N156  1  0.48334923  0.60274404  0.85798892  1
  N  N157  1  0.34691556  0.72283095  0.59277092  1
  C  C158  1  0.28328433  0.73371265  0.57221589  1
  C  C159  1  0.22795347  0.70439773  0.57302246  1
  C  C160  1  0.05647677  0.55831741  0.50533635  1
  H  H161  1  0.09938056  0.64924558  0.99980619  1
  C  C162  1  0.03907244  0.60746085  0.50221981  1
  N  N163  1  0.03419619  0.89682785  0.21898147  1
  C  C164  1  0.01177715  0.94054051  0.24919621  1
  N  N165  1  0.12854634  0.82571294  0.33347702  1
  Cu  Cu166  1  0.09578009  0.88175057  0.42453542  1
  N  N167  1  0.19641941  0.89835896  0.39205122  1
  H  H168  1  0.46353524  0.75658428  0.33987782  1
  C  C169  1  0.44850457  0.99188545  0.12837706  1
  C  C170  1  0.10014599  0.78476352  0.32623532  1
  N  N171  1  0.34001269  0.89788576  0.26747400  1
  C  C172  1  0.29730196  0.86375134  0.24366286  1
  C  C173  1  0.19131109  0.81907188  0.28501745  1
  C  C174  1  0.21994861  0.77525605  0.21121542  1
  C  C175  1  0.22714350  0.86320534  0.31035804  1
  C  C176  1  0.30746666  0.93160639  0.34570144  1
  C  C177  1  0.24047997  0.93114733  0.40510671  1
  C  C178  1  0.02933705  0.96139754  0.42263644  1
  H  H179  1  0.04475679  0.79123443  0.35434086  1
  C  C180  1  0.32557503  0.82298447  0.14522905  1
  C  C181  1  0.28693212  0.78169968  0.12497784  1
  C  C182  1  0.01436386  0.87878051  0.06098044  1
  Cu  Cu183  1  0.42989659  0.88345725  0.15520618  1
  N  N184  1  0.47236426  0.94937768  0.14457300  1
  H  H185  1  0.34178548  0.96135452  0.35617883  1
  H  H186  1  0.21631959  0.96139277  0.48175444  1
  N  N187  1  0.39001555  0.82665966  0.09158240  1
  H  H188  1  0.39139780  0.98877051  0.15490146  1
  H  H189  1  0.11623732  0.98043511  0.12966876  1
  H  H190  1  0.02978707  0.84279335  0.02674819  1
  N  N191  1  0.37532832  0.91498818  0.78086369  1
  C  C192  1  0.40875259  0.94988701  0.71865678  1
  C  C193  1  0.31277001  0.92462827  0.84247595  1
  H  H194  1  0.09896701  0.92905761  0.79284780  1
  H  H195  1  0.45017704  0.79806254  0.90775331  1
  H  H196  1  0.14564999  0.79606195  0.64965848  1
  C  C197  1  0.07233226  0.95476448  0.70627753  1
  C  C198  1  0.09772193  0.78823176  0.71257828  1
  C  C199  1  0.29070781  0.96952437  0.87422910  1
  H  H200  1  0.28265876  0.77074912  0.52378542  1
  N  N201  1  0.04881842  0.81272224  0.64670339  1
  C  C202  1  0.08268878  0.76169632  0.86389553  1
  H  H203  1  0.29007011  0.89224291  0.88669328  1
  C  C204  1  0.04830073  0.99900004  0.75214328  1
  H  H205  1  0.24248992  0.97925167  0.92369165  1
  C  C206  1  0.38765192  0.99694151  0.76690125  1
  C  C207  1  0.47694822  0.94468511  0.64610283  1
  N  N208  1  0.49608597  0.90312153  0.59689435  1
  C  C209  1  0.36386840  0.75205390  0.96223796  1
  N  N210  1  0.02663579  0.75754085  0.95763348  1
  N  N211  1  0.06371355  0.93745582  0.54747568  1
  C  C212  1  0.40409799  0.79206232  0.98906068  1
  C  C213  1  0.50152203  0.19748720  0.04422951  1
  C  C214  1  0.57625966  0.15462364  0.28474091  1
  C  C215  1  0.53015770  0.22173473  0.19575077  1
  H  H216  1  0.93740969  0.13480619  0.27122350  1
  C  C217  1  0.97998202  0.03739300  0.32352195  1
  H  H218  1  0.56110359  0.09606488  0.11244202  1
  C  C219  1  0.54617040  0.13241267  0.13199148  1
  C  C220  1  0.90256240  0.07806628  0.08468756  1
  N  N221  1  0.55295652  0.02879388  0.10022380  1
  C  C222  1  0.94232684  0.09843398  0.22382746  1
  H  H223  1  0.60788110  0.13808435  0.38244636  1
  H  H224  1  0.69760374  0.21542993  0.23651382  1
  N  N225  1  0.98628395  0.08250920  0.33681945  1
  N  N226  1  0.55562021  0.19579565  0.33220356  1
  C  C227  1  0.94413494  0.01326624  0.17161639  1
  C  C228  1  0.72099191  0.24627762  0.30703505  1
  N  N229  1  0.50166533  0.15334501  0.03417122  1
  N  N230  1  0.68756246  0.02002912  0.00625558  1
  N  N231  1  0.89974336  0.03313711  0.07016630  1
  H  H232  1  0.86417550  0.09332963  0.00002069  1
  Cu  Cu233  1  0.98535215  0.08238380  0.68924154  1
  N  N234  1  0.86116111  0.21778321  0.86465399  1
  C  C235  1  0.77538315  0.08832921  0.66354481  1
  H  H236  1  0.94202357  0.24881967  0.96687199  1
  C  C237  1  0.51914024  0.10159920  0.68172613  1
  C  C238  1  0.79410412  0.02223873  0.55195341  1
  C  C239  1  0.73202945  0.12644871  0.72947490  1
  H  H240  1  0.55458519  0.12964338  0.63810425  1
  N  N241  1  0.74475080  0.04981929  0.59720633  1
  C  C242  1  0.66498820  0.19203862  0.87684853  1
  C  C243  1  0.96666384  0.18159581  0.84341253  1
  N  N244  1  0.94222196  0.14358173  0.77253003  1
  Cu  Cu245  1  0.64826847  0.05314061  0.63091100  1
  C  C246  1  0.84691484  0.09689615  0.67879897  1
  C  C247  1  0.83431934  0.17893708  0.80007053  1
  H  H248  1  0.58774057  0.13808890  0.85343108  1
  N  N249  1  0.55182112  0.06170491  0.66348387  1
  C  C250  1  0.76215583  0.17014802  0.79222359  1
  C  C251  1  0.87680438  0.14120456  0.74438801  1
  N  N252  1  0.66829310  0.11583055  0.73140108  1
  N  N253  1  0.89495526  0.06571442  0.64788432  1
  C  C254  1  0.86395661  0.03143921  0.56623716  1
  C  C255  1  0.63775679  0.14989580  0.81957930  1
  C  C256  1  0.92682784  0.21862470  0.89163614  1
  N  N257  1  0.72660717  0.20581727  0.85761916  1
  H  H258  1  0.68056414  0.24202568  0.59449241  1
  C  C259  1  0.50422861  0.02802766  0.67360641  1
  H  H260  1  0.63793890  0.22303071  0.93236684  1
  C  C261  1  0.75057454  0.01006679  0.98302236  1
  H  H262  1  0.78118514  0.04011779  0.98741195  1
  H  H263  1  0.90025004  0.00729865  0.51328290  1
  N  N264  1  0.55569229  0.29164913  0.35845315  1
  C  C265  1  0.55213342  0.36089852  0.18656154  1
  N  N266  1  0.75880959  0.26717276  0.18589512  1
  C  C267  1  0.86816885  0.36979645  0.22866296  1
  N  N268  1  0.91261388  0.39419637  0.13238082  1
  Cu  Cu269  1  0.94845848  0.44510078  0.29854436  1
  H  H270  1  0.72705098  0.45926398  0.40465164  1
  C  C271  1  0.56379142  0.33512785  0.34566111  1
  C  C272  1  0.85187601  0.38722962  0.41545198  1
  C  C273  1  0.53275257  0.27249453  0.20724556  1
  C  C274  1  0.78600113  0.30338533  0.26932496  1
  H  H275  1  0.58300296  0.34988294  0.47705746  1
  C  C276  1  0.83546323  0.33074868  0.15838549  1
  H  H277  1  0.56618091  0.39678497  0.15703584  1
  C  C278  1  0.51891266  0.29908314  0.04292709  1
  H  H279  1  0.81949946  0.49628493  0.16484724  1
  N  N280  1  0.52679423  0.34400081  0.03991542  1
  N  N281  1  0.88742419  0.42282374  0.47056563  1
  C  C282  1  0.77130735  0.31777773  0.45861150  1
  C  C283  1  0.70852526  0.26068428  0.48930593  1
  N  N284  1  0.66948316  0.45568591  0.60830040  1
  C  C285  1  0.58578512  0.45629753  0.81872368  1
  N  N286  1  0.73367717  0.29587124  0.57905376  1
  Cu  Cu287  1  0.78220051  0.25970384  0.92696084  1
  H  H288  1  0.88920390  0.32601296  0.76355558  1
  C  C289  1  0.82342170  0.40650460  0.74427017  1
  C  C290  1  0.72299239  0.47365390  0.54269878  1
  N  N291  1  0.78725512  0.37186811  0.69520907  1
  C  C292  1  0.87033077  0.43229289  0.63975365  1
  H  H293  1  0.89638577  0.46061433  0.68378407  1
  H  H294  1  0.80634400  0.41732696  0.88040504  1
  Cu  Cu295  1  0.72902570  0.33070787  0.79764097  1
  N  N296  1  0.55575059  0.42390416  0.72060584  1
  C  C297  1  0.80511047  0.36040770  0.52632791  1
  C  C298  1  0.89011850  0.33892699  0.90813872  1
  C  C299  1  0.55660170  0.47975809  0.97496592  1
  C  C300  1  0.65008206  0.47699245  0.76118343  1
  H  H301  1  0.96778863  0.39545024  0.90183713  1
  C  C302  1  0.92553569  0.37724007  0.96963869  1
  N  N303  1  0.84150904  0.31476372  0.98741652  1
  C  C304  1  0.85209030  0.52384666  0.22998332  1
  N  N305  1  0.78376665  0.68149850  0.17587561  1
  N  N306  1  0.67497179  0.57698867  0.06428205  1
  H  H307  1  0.78900999  0.58386623  0.15258595  1
  N  N308  1  0.55387796  0.74227801  0.25965483  1
  Cu  Cu309  1  0.87004019  0.67422644  0.30642379  1
  N  N310  1  0.54997234  0.53842669  0.19994048  1
  C  C311  1  0.97307361  0.62386200  0.42453285  1
  H  H312  1  0.66970219  0.62356728  0.25315581  1
  C  C313  1  0.92671586  0.58983231  0.34492632  1
  C  C314  1  0.66600383  0.70928248  0.20563160  1
  C  C315  1  0.61668966  0.73652667  0.31159962  1
  C  C316  1  0.73459992  0.70255822  0.26833579  1
  C  C317  1  0.58164347  0.57272119  0.26528799  1
  N  N318  1  0.87058869  0.60647701  0.27733472  1
  C  C319  1  0.75774699  0.72117754  0.44434164  1
  N  N320  1  0.95363414  0.66652210  0.41583822  1
  C  C321  1  0.94663001  0.53993250  0.34094685  1
  N  N322  1  0.90762680  0.50581936  0.28536856  1
  C  C323  1  0.83443107  0.57159872  0.22940147  1
  C  C324  1  0.64425752  0.59230157  0.20750346  1
  C  C325  1  0.58855992  0.51824218  0.07271586  1
  H  H326  1  0.55069874  0.58148960  0.37958177  1
  N  N327  1  0.64666408  0.69536616  0.04241139  1
  C  C328  1  0.65078789  0.53845937  0.00095967  1
  C  C329  1  0.76143436  0.67485250  0.01103958  1
  C  C330  1  0.69438380  0.67827768  0.94429064  1
  H  H331  1  0.67258397  0.66958700  0.80376519  1
  C  C332  1  0.53253840  0.63052199  0.87057626  1
  H  H333  1  0.88072507  0.71587202  0.72678075  1
  H  H334  1  0.57780287  0.61333615  0.92564996  1
  H  H335  1  0.55948036  0.70384166  0.80910923  1
  C  C336  1  0.52375865  0.67578363  0.80934718  1
  C  C337  1  0.83046844  0.72720308  0.66944649  1
  C  C338  1  0.71043244  0.74835675  0.54257605  1
  N  N339  1  0.73889569  0.53425329  0.76720140  1
  H  H340  1  0.80430169  0.52595230  0.56730268  1
  H  H341  1  0.80272278  0.65920131  0.93320897  1
  C  C342  1  0.75778498  0.51178007  0.62374056  1
  C  C343  1  0.68281931  0.51636969  0.84068613  1
  H  H344  1  0.98100607  0.72856054  0.51930761  1
  C  C345  1  0.99694998  0.69268426  0.50151809  1
  N  N346  1  0.82060949  0.71187692  0.50624933  1
  C  C347  1  0.96421668  0.96562833  0.13283708  1
  C  C348  1  0.64869103  0.98312915  0.00683153  1
  C  C349  1  0.86187325  0.78696538  0.24709258  1
  C  C350  1  0.55826565  0.90199641  0.05726600  1
  C  C351  1  0.51732812  0.76374614  0.38131737  1
  N  N352  1  0.80551201  0.82853965  0.01429175  1
  N  N353  1  0.91632402  0.77502861  0.15464437  1
  H  H354  1  0.76215105  0.81610067  0.26701857  1
  C  C355  1  0.63953379  0.75553785  0.47982349  1
  H  H356  1  0.90061886  0.89083195  0.28701745  1
  C  C357  1  0.80557781  0.81001521  0.17808438  1
  C  C358  1  0.57878207  0.98905177  0.06453302  1
  C  C359  1  0.53615999  0.94832898  0.09179968  1
  C  C360  1  0.55369748  0.82497256  0.04930782  1
  H  H361  1  0.51835987  0.79813839  0.09724612  1
  C  C362  1  0.88949669  0.87816945  0.42653489  1
  H  H363  1  0.85935278  0.77357443  0.38654524  1
  N  N364  1  0.52286657  0.86391464  0.09374177  1
  H  H365  1  0.56353171  0.86136403  0.49588447  1
  H  H366  1  0.65476333  0.93384097  0.48994133  1
  H  H367  1  0.78407260  0.90485582  0.46841777  1
  N  N368  1  0.93979999  0.85358085  0.48061573  1
  N  N369  1  0.72368535  0.76372224  0.70898001  1
  C  C370  1  0.86119132  0.81892512  0.92090972  1
  C  C371  1  0.52468006  0.98188838  0.61538675  1
  H  H372  1  0.78996303  0.76153265  0.91434149  1
  C  C373  1  0.53945900  0.78143793  0.55016375  1
  C  C374  1  0.86636877  0.83875420  0.74134585  1
  Cu  Cu375  1  0.73914048  0.86298286  0.84046666  1
  C  C376  1  0.92955839  0.83474994  0.63977836  1
  N  N377  1  0.81822808  0.86626284  0.67602165  1
  C  C378  1  0.97907345  0.78403519  0.88191256  1
  H  H379  1  0.94854318  0.89297121  0.82664931  1
  C  C380  1  0.78283642  0.75076868  0.77085507  1
  N  N381  1  0.94495888  0.94654762  0.97894302  1
  C  C382  1  0.97034278  0.90514894  0.95337665  1
  N  N383  1  0.74005888  0.93169887  0.91924915  1
  H  H384  1  0.51281111  0.80049281  0.65235666  1
  C  C385  1  0.98947838  0.81035981  0.71886690  1
  C  C386  1  0.55417509  0.89708966  0.53066173  1
  N  N387  1  0.58733224  0.97703071  0.55298542  1
  N  N388  1  0.60146398  0.77747307  0.59278245  1
  C  C389  1  0.60144607  0.93407436  0.52275679  1
  C  C390  1  0.77974461  0.96694483  0.94004878  1
  C  C391  1  0.82818846  0.88346077  0.51791300  1
  H  H392  1  0.83103353  0.95797794  0.89001336  1
  C  C393  1  0.62783471  0.90075196  0.98954022  1
  C  C394  1  0.61905962  0.82264901  0.98928238  1
  H  H395  1  0.77366548  0.98972134  0.50637655  1
  H  H396  1  0.65200449  0.79144432  0.97071604  1
  C  C397  1  0.91752321  0.79155562  0.99109077  1
  C  C398  1  0.67461641  0.93767442  0.96375899  1
  N  N399  1  0.65502801  0.85983759  0.95418570  1
