# generated using pymatgen
data_Zn6H26C44O13
_symmetry_space_group_name_H-M   'P 1'
_cell_length_a   19.06054124
_cell_length_b   20.02916254
_cell_length_c   24.35147706
_cell_angle_alpha   90.00000000
_cell_angle_beta   90.00000000
_cell_angle_gamma   90.00000000
_symmetry_Int_Tables_number   1
_chemical_formula_structural   Zn6H26C44O13
_chemical_formula_sum   'Zn48 H208 C352 O104'
_cell_volume   9296.58251690
_cell_formula_units_Z   8
loop_
 _symmetry_equiv_pos_site_id
 _symmetry_equiv_pos_as_xyz
  1  'x, y, z'
loop_
 _atom_site_type_symbol
 _atom_site_label
 _atom_site_symmetry_multiplicity
 _atom_site_fract_x
 _atom_site_fract_y
 _atom_site_fract_z
 _atom_site_occupancy
  C  C0  1  0.19169463  0.14366381  0.23853480  1
  O  O1  1  0.01550646  0.04500883  0.06950622  1
  C  C2  1  0.29322913  0.30681066  0.19066547  1
  C  C3  1  0.35164151  0.32238592  0.14858260  1
  C  C4  1  0.37620177  0.43454675  0.18681088  1
  C  C5  1  0.35579795  0.16875747  0.07063971  1
  H  H6  1  0.13674556  0.05562328  0.13938787  1
  C  C7  1  0.08407605  0.26627616  0.07597707  1
  C  C8  1  0.33542714  0.12178647  0.11034843  1
  C  C9  1  0.43161613  0.16643898  0.05071439  1
  C  C10  1  0.10845190  0.29330357  0.17227535  1
  C  C11  1  0.42302324  0.40829640  0.09162465  1
  H  H12  1  0.28571366  0.25087805  0.20217204  1
  H  H13  1  0.08788971  0.23297223  0.04134454  1
  C  C14  1  0.38752487  0.38829528  0.14067708  1
  C  C15  1  0.30705554  0.21431119  0.04912407  1
  O  O16  1  0.44861019  0.46682198  0.09353452  1
  C  C17  1  0.14160549  0.17849248  0.13879696  1
  H  H18  1  0.41747126  0.47258687  0.19357602  1
  H  H19  1  0.12121221  0.01728295  0.22893013  1
  H  H20  1  0.19967165  0.25722736  0.06202389  1
  H  H21  1  0.25019721  0.08620929  0.16200656  1
  C  C22  1  0.08680961  0.35842732  0.15912110  1
  Zn  Zn23  1  0.27744568  0.39642533  0.15475022  1
  C  C24  1  0.24062084  0.22068126  0.07437686  1
  C  C25  1  0.10813300  0.24766067  0.12843879  1
  O  O26  1  0.47032188  0.11796109  0.06745302  1
  H  H27  1  0.02955268  0.14949632  0.10735393  1
  O  O28  1  0.02273101  0.48419675  0.13283975  1
  O  O29  1  0.42252124  0.37860306  0.04558210  1
  C  C30  1  0.26657392  0.12169064  0.12966121  1
  H  H31  1  0.08344218  0.39859728  0.19011880  1
  C  C32  1  0.13500952  0.15105230  0.19835866  1
  H  H33  1  0.13243846  0.27838878  0.21150019  1
  H  H34  1  0.37246259  0.08353289  0.12438406  1
  H  H35  1  0.11192263  0.14225601  0.11012480  1
  C  C36  1  0.21964980  0.17495722  0.11629315  1
  C  C37  1  0.05877264  0.32902125  0.06453950  1
  H  H38  1  0.32383107  0.24975947  0.01645689  1
  O  O39  1  0.45451993  0.20675736  0.01565743  1
  C  C40  1  0.05716297  0.37406596  0.10832373  1
  C  C41  1  0.06779391  0.12907421  0.21047844  1
  H  H42  1  0.24297039  0.16441717  0.23075144  1
  H  H43  1  0.36529776  0.28294330  0.11796942  1
  H  H44  1  0.00037266  0.26924262  0.14009201  1
  O  O45  1  0.17656565  0.04844475  0.04794515  1
  H  H46  1  0.02488018  0.13061578  0.17670896  1
  H  H47  1  0.47955761  0.30302886  0.20951599  1
  C  C48  1  0.15300692  0.00449046  0.14856088  1
  H  H49  1  0.04377033  0.34234099  0.02320099  1
  C  C50  1  0.02663519  0.44269648  0.09675404  1
  Zn  Zn51  1  0.49713243  0.30034978  0.02997700  1
  O  O52  1  0.00273051  0.45404454  0.04916872  1
  C  C53  1  0.49756346  0.06480613  0.21216638  1
  O  O54  1  0.47561336  0.09967303  0.24821097  1
  C  C55  1  0.32255731  0.42026561  0.23254509  1
  H  H56  1  0.36596478  0.23911520  0.24941466  1
  C  C57  1  0.28610649  0.35502878  0.23270932  1
  C  C58  1  0.07874748  0.38191993  0.32145957  1
  C  C59  1  0.03023543  0.37090368  0.42088605  1
  C  C60  1  0.11954015  0.28779022  0.38056719  1
  C  C61  1  0.31300576  0.27941983  0.31975227  1
  H  H62  1  0.47355769  0.27497469  0.31931695  1
  H  H63  1  0.26694613  0.37746515  0.32207268  1
  C  C64  1  0.17303707  0.11748655  0.28888674  1
  C  C65  1  0.42531136  0.12824322  0.41560043  1
  C  C66  1  0.17341425  0.26443983  0.33627686  1
  C  C67  1  0.26645971  0.33409329  0.29222516  1
  H  H68  1  0.21135458  0.22426866  0.34832542  1
  C  C69  1  0.07077478  0.34442146  0.37239533  1
  O  O70  1  0.47695385  0.10274575  0.39247199  1
  C  C71  1  0.38948071  0.18433226  0.32716916  1
  C  C72  1  0.14288786  0.37108230  0.28038415  1
  C  C73  1  0.30865082  0.27439891  0.37886910  1
  C  C74  1  0.07957809  0.06433939  0.35687019  1
  H  H75  1  0.33185239  0.44966930  0.27145836  1
  C  C76  1  0.35588565  0.23127097  0.29454664  1
  H  H77  1  0.16905009  0.41436979  0.26514247  1
  H  H78  1  0.27154820  0.31207423  0.39678915  1
  C  C79  1  0.10321918  0.09187625  0.30261847  1
  O  O80  1  0.11695351  0.06380451  0.40012277  1
  C  C81  1  0.38061258  0.17741868  0.38243391  1
  H  H82  1  0.21474480  0.11196030  0.32201699  1
  C  C83  1  0.18610195  0.31551777  0.29455222  1
  C  C84  1  0.33828408  0.22363873  0.41135133  1
  H  H85  1  0.10899542  0.25718940  0.41769943  1
  H  H86  1  0.33766247  0.22351728  0.45546805  1
  H  H87  1  0.04878702  0.43208987  0.31759933  1
  Zn  Zn88  1  0.08012349  0.28449184  0.29943353  1
  O  O89  1  0.40905286  0.11486522  0.46402420  1
  H  H90  1  0.42396112  0.14641452  0.30659254  1
  O  O91  1  0.02425628  0.43381252  0.42212344  1
  H  H92  1  0.00199816  0.07999661  0.27255838  1
  O  O93  1  0.01784519  0.04420913  0.35705186  1
  O  O94  1  0.00909108  0.33560526  0.45966623  1
  H  H95  1  0.37583739  0.00941043  0.25392621  1
  C  C96  1  0.05278046  0.09634884  0.26077789  1
  H  H97  1  0.39434642  0.03213683  0.61488637  1
  C  C98  1  0.48063165  0.05925242  0.67948244  1
  Zn  Zn99  1  0.43863674  0.02699221  0.50518211  1
  H  H100  1  0.46218099  0.09116134  0.64427940  1
  O  O101  1  0.31979293  0.10408669  0.66855132  1
  H  H102  1  0.05943812  0.42393056  0.71992063  1
  H  H103  1  0.08853868  0.25375627  0.70315779  1
  H  H104  1  0.04074166  0.18980799  0.61356529  1
  C  C105  1  0.08096448  0.02133218  0.57731361  1
  C  C106  1  0.03767156  0.37948368  0.74236931  1
  O  O107  1  0.12645392  0.01690942  0.54034990  1
  C  C108  1  0.04212276  0.26883265  0.67838189  1
  C  C109  1  0.32551875  0.11831611  0.71463864  1
  H  H110  1  0.37490821  0.48448899  0.72475717  1
  O  O111  1  0.03603402  0.06685777  0.57991851  1
  C  C112  1  0.01268804  0.23299689  0.63420141  1
  C  C113  1  0.01030550  0.32729916  0.69798822  1
  H  H114  1  0.49599568  0.14008895  0.73895551  1
  H  H115  1  0.18057112  0.41445704  0.73990287  1
  C  C116  1  0.13842471  0.27417931  0.85167441  1
  H  H117  1  0.33451876  0.10747731  0.85122143  1
  Zn  Zn118  1  0.30736384  0.32501981  0.84943488  1
  Zn  Zn119  1  0.43106691  0.08819352  0.92229845  1
  H  H120  1  0.39225748  0.24104495  0.84207469  1
  C  C121  1  0.20491105  0.30263303  0.84527850  1
  C  C122  1  0.22248247  0.35226929  0.80674288  1
  H  H123  1  0.02875344  0.28043959  0.82286976  1
  O  O124  1  0.12942259  0.12762948  0.93714766  1
  O  O125  1  0.33060204  0.11267433  0.89189570  1
  C  C126  1  0.09201091  0.12997930  0.89485587  1
  C  C127  1  0.08311474  0.30176668  0.81930432  1
  O  O128  1  0.37626920  0.46790288  0.76186678  1
  H  H129  1  0.43800837  0.13467066  0.79994784  1
  Zn  Zn130  1  0.22915544  0.10072470  0.88987565  1
  C  C131  1  0.00067504  0.19302171  0.94938896  1
  O  O132  1  0.11269422  0.10117885  0.85243050  1
  C  C133  1  0.45917277  0.32045329  0.90815089  1
  O  O134  1  0.39955576  0.34035647  0.89580910  1
  H  H135  1  0.13015795  0.23147768  0.87987676  1
  C  C136  1  0.09874622  0.35029945  0.78114301  1
  O  O137  1  0.33201379  0.13458767  0.76148610  1
  H  H138  1  0.03471540  0.18610462  0.98475026  1
  Zn  Zn139  1  0.08980460  0.05314363  0.99894502  1
  C  C140  1  0.47190209  0.16528353  0.82618292  1
  C  C141  1  0.44624832  0.22409529  0.84776437  1
  O  O142  1  0.49655338  0.35362108  0.94498547  1
  C  C143  1  0.48942667  0.26013460  0.88409930  1
  C  C144  1  0.02011361  0.16118398  0.89937508  1
  O  O145  1  0.03596194  0.00254813  0.94791572  1
  Zn  Zn146  1  0.06002016  0.00069419  0.86917821  1
  C  C147  1  0.16908036  0.37533762  0.77079301  1
  Zn  Zn148  1  0.47349566  0.43558620  0.75834329  1
  C  C149  1  0.28506565  0.76328424  0.08687014  1
  Zn  Zn150  1  0.04237121  0.68215258  0.01204809  1
  C  C151  1  0.22364104  0.90417707  0.12378444  1
  C  C152  1  0.38942337  0.90494496  0.22877457  1
  H  H153  1  0.38990501  0.80202287  0.09234210  1
  C  C154  1  0.42688868  0.88965586  0.01534671  1
  O  O155  1  0.03234699  0.60555342  0.20331411  1
  C  C156  1  0.42438251  0.78431686  0.19681827  1
  C  C157  1  0.19855046  0.99001944  0.05450795  1
  Zn  Zn158  1  0.04933268  0.59257297  0.11465850  1
  H  H159  1  0.46395190  0.75929987  0.17057670  1
  C  C160  1  0.09687206  0.80364222  0.22720478  1
  C  C161  1  0.47104499  0.99371328  0.20298736  1
  H  H162  1  0.18303114  0.70225719  0.19341164  1
  C  C163  1  0.06863153  0.74012283  0.21443141  1
  H  H164  1  0.08642491  0.84163620  0.19569687  1
  O  O165  1  0.45291628  0.89137039  0.05853647  1
  O  O166  1  0.15171535  0.71294736  0.02926440  1
  C  C167  1  0.40935456  0.97262541  0.22990295  1
  O  O168  1  0.11516638  0.68478323  0.11007137  1
  C  C169  1  0.14655493  0.98210249  0.20173652  1
  C  C170  1  0.34305593  0.78473812  0.11584272  1
  C  C171  1  0.29162082  0.73869047  0.19759003  1
  C  C172  1  0.17569325  0.91822848  0.21507660  1
  C  C173  1  0.21992934  0.88230448  0.17839516  1
  H  H174  1  0.24234181  0.83327618  0.18715842  1
  C  C175  1  0.22925956  0.72286586  0.16969166  1
  C  C176  1  0.16159048  0.71211456  0.08305256  1
  H  H177  1  0.28252782  0.77892264  0.04316966  1
  C  C178  1  0.35110302  0.76975849  0.17181676  1
  C  C179  1  0.42849576  0.86097210  0.19422786  1
  C  C180  1  0.22658804  0.73147949  0.11153758  1
  C  C181  1  0.48962599  0.88521201  0.16618592  1
  H  H182  1  0.25632899  0.87551621  0.09365567  1
  C  C183  1  0.18941643  0.96388509  0.10905953  1
  H  H184  1  0.29665905  0.72992475  0.24253068  1
  O  O185  1  0.23031019  0.95789133  0.01773270  1
  O  O186  1  0.45445585  0.67367848  0.03647362  1
  Zn  Zn187  1  0.33615371  0.94339621  0.01053069  1
  H  H188  1  0.03924468  0.73055118  0.17629329  1
  C  C189  1  0.06782004  0.61666820  0.24390855  1
  O  O190  1  0.00061470  0.59954409  0.04567882  1
  O  O191  1  0.49439457  0.59964582  0.09365511  1
  C  C192  1  0.49462944  0.65858233  0.07583869  1
  C  C193  1  0.32002551  0.85435188  0.35174989  1
  C  C194  1  0.46176951  0.68958251  0.33302262  1
  C  C195  1  0.49275238  0.73972026  0.36314406  1
  C  C196  1  0.21568198  0.90419063  0.31447971  1
  C  C197  1  0.26759282  0.95842821  0.39234676  1
  H  H198  1  0.36234589  0.81596538  0.35417341  1
  C  C199  1  0.43987028  0.70205519  0.27910320  1
  H  H200  1  0.49051624  0.86466690  0.26901711  1
  O  O201  1  0.41627705  0.86282796  0.44062117  1
  C  C202  1  0.12533239  0.70530550  0.30033816  1
  C  C203  1  0.31749692  0.90611573  0.39094748  1
  C  C204  1  0.37049581  0.90747277  0.43708618  1
  O  O205  1  0.13153484  0.88486572  0.45087400  1
  C  C206  1  0.15429875  0.89524041  0.27377476  1
  O  O207  1  0.09144744  0.57398703  0.27535013  1
  O  O208  1  0.49997108  0.67235084  0.44267724  1
  H  H209  1  0.18119934  0.78233413  0.35150102  1
  O  O210  1  0.36494751  0.95122748  0.47157211  1
  C  C211  1  0.15173410  0.76871959  0.31329484  1
  H  H212  1  0.10812996  0.92396686  0.28816656  1
  C  C213  1  0.13656535  0.81905507  0.27357692  1
  H  H214  1  0.13625319  0.66422784  0.32891260  1
  C  C215  1  0.21390535  0.95873586  0.35186412  1
  C  C216  1  0.26661093  0.85343330  0.31273204  1
  H  H217  1  0.26306586  0.81009674  0.28350236  1
  H  H218  1  0.45518320  0.64177231  0.35509307  1
  C  C219  1  0.48291120  0.81360391  0.28647974  1
  C  C220  1  0.44766594  0.76637294  0.25708882  1
  C  C221  1  0.08600326  0.69159974  0.25310720  1
  H  H222  1  0.41721744  0.66041355  0.25455034  1
  H  H223  1  0.17224374  0.99679555  0.35120482  1
  H  H224  1  0.26520270  0.99769321  0.42456958  1
  Zn  Zn225  1  0.09248593  0.99186925  0.45804461  1
  H  H226  1  0.24892489  0.90846052  0.49210628  1
  C  C227  1  0.12725828  0.84129140  0.48631082  1
  H  H228  1  0.34936735  0.88334353  0.25474402  1
  C  C229  1  0.11054350  0.85575156  0.64897351  1
  C  C230  1  0.40510913  0.69350578  0.69685683  1
  O  O231  1  0.06956811  0.82249874  0.50881044  1
  C  C232  1  0.07231002  0.96389905  0.61828925  1
  C  C233  1  0.23645301  0.74854741  0.59727940  1
  H  H234  1  0.22736707  0.72523247  0.71613316  1
  H  H235  1  0.14578306  0.80817139  0.64700649  1
  C  C236  1  0.25223155  0.85874652  0.51627818  1
  C  C237  1  0.03299828  0.71748160  0.64212310  1
  O  O238  1  0.48432318  0.50972063  0.50835924  1
  H  H239  1  0.02828576  0.64600404  0.57462067  1
  C  C240  1  0.18232226  0.76301187  0.55036192  1
  C  C241  1  0.25290871  0.89762396  0.67711531  1
  C  C242  1  0.31000380  0.84274379  0.56158831  1
  H  H243  1  0.16016875  0.58828871  0.70973353  1
  C  C244  1  0.45250118  0.95564118  0.62048760  1
  H  H245  1  0.44855452  0.71822964  0.67348423  1
  H  H246  1  0.39277518  0.80482886  0.64601796  1
  H  H247  1  0.34647562  0.88312047  0.57370115  1
  H  H248  1  0.22398110  0.71483558  0.63297178  1
  C  C249  1  0.06033850  0.73420513  0.69386943  1
  C  C250  1  0.33821578  0.79509983  0.65537652  1
  C  C251  1  0.11116754  0.55036920  0.61107892  1
  C  C252  1  0.04018525  0.80155771  0.72535192  1
  H  H253  1  0.12853107  0.74067962  0.55161144  1
  C  C254  1  0.29829059  0.78902449  0.60151263  1
  H  H255  1  0.15835927  0.90727927  0.57992609  1
  C  C256  1  0.12217170  0.62499605  0.69288292  1
  C  C257  1  0.28083701  0.70219663  0.71805154  1
  C  C258  1  0.11844676  0.90989491  0.61248655  1
  C  C259  1  0.09322471  0.61446498  0.64115223  1
  C  C260  1  0.31320547  0.85545195  0.69189247  1
  C  C261  1  0.34063483  0.72914313  0.69178321  1
  H  H262  1  0.22673207  0.89084166  0.63873732  1
  C  C263  1  0.10194853  0.68381914  0.71803879  1
  C  C264  1  0.04949699  0.65780676  0.61468387  1
  H  H265  1  0.15986677  0.94683728  0.72188789  1
  C  C266  1  0.01686300  0.97068816  0.65522808  1
  Zn  Zn267  1  0.28673675  0.76007246  0.51811834  1
  C  C268  1  0.05532037  0.86282355  0.68760673  1
  C  C269  1  0.48214311  0.98953127  0.67019201  1
  H  H270  1  0.18294408  0.82764388  0.72766739  1
  O  O271  1  0.07386916  0.53916283  0.56893045  1
  O  O272  1  0.46453778  0.90063309  0.60448627  1
  Zn  Zn273  1  0.32788194  0.95793519  0.71092436  1
  C  C274  1  0.19455395  0.81319657  0.50749577  1
  O  O275  1  0.39736449  0.99638317  0.58940826  1
  C  C276  1  0.21821293  0.94170193  0.72369610  1
  O  O277  1  0.15064033  0.51319610  0.63317745  1
  C  C278  1  0.00871905  0.91607093  0.69167537  1
  C  C279  1  0.41244571  0.63600063  0.72968440  1
  C  C280  1  0.29317001  0.64383783  0.74602776  1
  H  H281  1  0.46633023  0.61709878  0.73751425  1
  C  C282  1  0.34450095  0.85849518  0.74518509  1
  C  C283  1  0.11745780  0.57651896  0.90759835  1
  O  O284  1  0.39039745  0.67383924  0.91513504  1
  C  C285  1  0.36323805  0.54083623  0.79290286  1
  O  O286  1  0.37653446  0.53729633  0.84258222  1
  C  C287  1  0.15993914  0.81864308  0.76761470  1
  H  H288  1  0.37440076  0.81160462  0.75830386  1
  C  C289  1  0.47025500  0.96889527  0.86063107  1
  C  C290  1  0.10792959  0.79378648  0.87665737  1
  C  C291  1  0.44268761  0.94123366  0.96871043  1
  O  O292  1  0.39414434  0.80833967  0.99989008  1
  O  O293  1  0.48153039  0.51875888  0.95352845  1
  H  H294  1  0.44549843  0.96845269  0.82088439  1
  C  C295  1  0.06105124  0.79945072  0.83253716  1
  C  C296  1  0.20847429  0.82038266  0.81090609  1
  O  O297  1  0.30124173  0.85005465  0.90787270  1
  H  H298  1  0.40176673  0.88689500  0.89907799  1
  H  H299  1  0.26047163  0.82991236  0.80172314  1
  C  C300  1  0.24678891  0.82315830  0.90227604  1
  H  H301  1  0.34797641  0.92352750  0.82349835  1
  Zn  Zn302  1  0.18625270  0.78019806  0.96366203  1
  C  C303  1  0.18748454  0.79968311  0.86570122  1
  Zn  Zn304  1  0.43820416  0.58891303  0.91014456  1
  C  C305  1  0.25342085  0.95541449  0.77543896  1
  C  C306  1  0.35367019  0.60465885  0.75558542  1
  H  H307  1  0.38772354  0.67840849  0.87649369  1
  C  C308  1  0.08584875  0.80889652  0.77733346  1
  H  H309  1  0.08585468  0.78624065  0.92010006  1
  H  H310  1  0.37431234  0.81868833  0.96322441  1
  C  C311  1  0.43098911  0.93211765  0.90904897  1
  Zn  Zn312  1  0.25512736  0.56589768  0.79306478  1
  Zn  Zn313  1  0.45772237  0.73809793  0.96493857  1
  C  C314  1  0.31804772  0.91437273  0.78526387  1
  O  O315  1  0.14333831  0.95788955  0.82132929  1
  H  H316  1  0.00655814  0.78871052  0.83988087  1
  O  O317  1  0.16480990  0.60198471  0.89851196  1
  C  C318  1  0.20816158  0.97134027  0.82357331  1
  H  H319  1  0.11818402  0.69393480  0.76176559  1
  C  C320  1  0.49471268  0.99496345  0.98328645  1
  O  O321  1  0.23359961  0.99394720  0.86654466  1
  C  C322  1  0.92462386  0.12739833  0.08322293  1
  C  C323  1  0.81573405  0.43628199  0.10803059  1
  H  H324  1  0.84388689  0.46093057  0.14073219  1
  H  H325  1  0.80757351  0.27777594  0.04460036  1
  H  H326  1  0.93576613  0.35452415  0.11788257  1
  O  O327  1  0.55793693  0.07685935  0.19008443  1
  C  C328  1  0.52297771  0.27506437  0.23093506  1
  O  O329  1  0.56079688  0.31360632  0.09870298  1
  H  H330  1  0.89669754  0.45221558  0.18966213  1
  C  C331  1  0.59368846  0.27291621  0.13112107  1
  C  C332  1  0.65549550  0.27407539  0.23347892  1
  C  C333  1  0.73482469  0.36006118  0.03360385  1
  H  H334  1  0.62584153  0.16735631  0.01747209  1
  C  C335  1  0.76414428  0.46976251  0.07676275  1
  Zn  Zn336  1  0.68241348  0.33415499  0.17113689  1
  C  C337  1  0.82831546  0.36693237  0.09996587  1
  C  C338  1  0.95301475  0.06039324  0.06173712  1
  C  C339  1  0.88588117  0.32970878  0.13568105  1
  C  C340  1  0.85387868  0.14996064  0.08150528  1
  H  H341  1  0.85354612  0.24413605  0.21587227  1
  C  C342  1  0.95992178  0.23358511  0.12381611  1
  C  C343  1  0.72188143  0.43011230  0.04128602  1
  Zn  Zn344  1  0.56391590  0.12812341  0.11093368  1
  H  H345  1  0.77481971  0.21909530  0.10777970  1
  C  C346  1  0.67972667  0.15791391  0.00328642  1
  H  H347  1  0.81476650  0.11454901  0.06395839  1
  O  O348  1  0.61782182  0.21833626  0.11268400  1
  C  C349  1  0.88817498  0.25655379  0.12040187  1
  C  C350  1  0.83250747  0.20990566  0.10592861  1
  C  C351  1  0.79417180  0.33006782  0.05644367  1
  C  C352  1  0.85459513  0.29264111  0.23292610  1
  C  C353  1  0.97569169  0.16962870  0.10296995  1
  C  C354  1  0.87109448  0.34656063  0.19665688  1
  C  C355  1  0.88638639  0.41047912  0.21762228  1
  C  C356  1  0.67370183  0.04028079  0.03695362  1
  O  O357  1  0.62003263  0.04919702  0.06565475  1
  C  C358  1  0.59315368  0.27854663  0.20058041  1
  C  C359  1  0.65617953  0.45600662  0.01351119  1
  H  H360  1  0.50928259  0.00949679  0.02876848  1
  O  O361  1  0.90810973  0.02623634  0.03818708  1
  C  C362  1  0.71218985  0.09324839  0.00805055  1
  H  H363  1  0.69169979  0.34012667  0.01092331  1
  O  O364  1  0.84441174  0.34257811  0.40966095  1
  C  C365  1  0.54640180  0.41625088  0.43137363  1
  H  H366  1  0.63567721  0.48082877  0.40010099  1
  C  C367  1  0.58407133  0.25135204  0.32662095  1
  H  H368  1  0.88984639  0.47029635  0.29126954  1
  Zn  Zn369  1  0.92738803  0.48278682  0.44188197  1
  O  O370  1  0.84948460  0.02308260  0.39772981  1
  H  H371  1  0.72995091  0.04082993  0.36733081  1
  C  C372  1  0.85030611  0.30540381  0.28992481  1
  H  H373  1  0.69936228  0.25790459  0.32207530  1
  C  C374  1  0.56299107  0.28477927  0.47781924  1
  C  C375  1  0.56812562  0.36542512  0.39631851  1
  C  C376  1  0.71117417  0.22020575  0.43289154  1
  H  H377  1  0.53666905  0.46675502  0.41195935  1
  C  C378  1  0.86166012  0.36999373  0.31157031  1
  H  H379  1  0.62120736  0.11145351  0.35215685  1
  O  O380  1  0.88662537  0.10525447  0.45374306  1
  H  H381  1  0.84029561  0.26110601  0.31646305  1
  C  C382  1  0.85151765  0.38467567  0.37187912  1
  C  C383  1  0.77195737  0.18211858  0.44258221  1
  C  C384  1  0.65713587  0.19511485  0.39872482  1
  C  C385  1  0.57724903  0.30194649  0.42344868  1
  C  C386  1  0.77653824  0.11805543  0.41785073  1
  C  C387  1  0.53518559  0.39954124  0.48657955  1
  Zn  Zn388  1  0.55848010  0.04082536  0.42730219  1
  H  H389  1  0.57847749  0.37323763  0.35077905  1
  C  C390  1  0.58589649  0.23609535  0.38642084  1
  C  C391  1  0.66538808  0.13136040  0.37459891  1
  O  O392  1  0.58051776  0.11412344  0.48815138  1
  H  H393  1  0.73823011  0.47750306  0.33727103  1
  C  C394  1  0.72246385  0.09093915  0.38504501  1
  C  C395  1  0.65168290  0.25745103  0.29627055  1
  H  H396  1  0.81610937  0.20379726  0.46676835  1
  O  O397  1  0.84990419  0.44524105  0.38400079  1
  C  C398  1  0.84203640  0.07798895  0.42310375  1
  C  C399  1  0.88221514  0.42025154  0.27447987  1
  H  H400  1  0.69941832  0.26779676  0.45260154  1
  Zn  Zn401  1  0.90283590  0.34274379  0.48894032  1
  H  H402  1  0.56971384  0.23226960  0.48903109  1
  H  H403  1  0.66838129  0.00634550  0.28772994  1
  H  H404  1  0.54146218  0.20330636  0.39864161  1
  C  C405  1  0.52145801  0.26374154  0.29413821  1
  H  H406  1  0.69838917  0.13108591  0.49788936  1
  Zn  Zn407  1  0.58843844  0.19636652  0.25267100  1
  H  H408  1  0.58126305  0.09919986  0.65047431  1
  O  O409  1  0.84444183  0.48664195  0.65523148  1
  H  H410  1  0.95173179  0.10179782  0.68494214  1
  H  H411  1  0.85865355  0.32524928  0.61685926  1
  H  H412  1  0.80714705  0.15067768  0.55223440  1
  C  C413  1  0.84739531  0.12910581  0.71904704  1
  H  H414  1  0.68768802  0.35419697  0.61970439  1
  C  C415  1  0.91036423  0.30980977  0.63385836  1
  C  C416  1  0.63191921  0.10621795  0.62972258  1
  C  C417  1  0.81743896  0.16280272  0.66648159  1
  C  C418  1  0.75983848  0.13506376  0.57348210  1
  H  H419  1  0.68814382  0.11226217  0.70735185  1
  C  C420  1  0.69349004  0.11857696  0.66088844  1
  O  O421  1  0.87802710  0.00738165  0.58876918  1
  C  C422  1  0.69902134  0.12460790  0.54188471  1
  C  C423  1  0.72129948  0.32898569  0.64916712  1
  C  C424  1  0.73764563  0.36071970  0.70040438  1
  H  H425  1  0.98129108  0.01488948  0.65210744  1
  C  C426  1  0.70331244  0.42792464  0.70359798  1
  C  C427  1  0.94926917  0.25594121  0.61113038  1
  C  C428  1  0.91592445  0.09784560  0.71866089  1
  C  C429  1  0.54258701  0.33721242  0.51317479  1
  O  O430  1  0.86965366  0.24742060  0.53547807  1
  C  C431  1  0.78593104  0.23293782  0.67962183  1
  O  O432  1  0.67171401  0.45265717  0.66365374  1
  C  C433  1  0.75669426  0.13085619  0.63138310  1
  H  H434  1  0.86207728  0.16399053  0.63589795  1
  Zn  Zn435  1  0.97097350  0.48466121  0.56488830  1
  C  C436  1  0.94556897  0.34481676  0.67495852  1
  C  C437  1  0.57112042  0.10544092  0.53870017  1
  C  C438  1  0.92263926  0.22485573  0.55992126  1
  C  C439  1  0.74615060  0.26366009  0.63823156  1
  H  H440  1  0.72935511  0.23734031  0.60233710  1
  C  C441  1  0.63884539  0.10993115  0.57287582  1
  Zn  Zn442  1  0.94116891  0.06310999  0.52719028  1
  H  H443  1  0.91879661  0.38843461  0.69392491  1
  C  C444  1  0.78541404  0.33355114  0.73918031  1
  O  O445  1  0.95328804  0.17248416  0.54403045  1
  C  C446  1  0.81148390  0.27143133  0.72528999  1
  O  O447  1  0.91380602  0.43495702  0.51506377  1
  C  C448  1  0.50801212  0.45481116  0.52317988  1
  C  C449  1  0.50049447  0.08599219  0.73071756  1
  O  O450  1  0.51106913  0.44336606  0.57366980  1
  O  O451  1  0.51089887  0.09535504  0.55551490  1
  H  H452  1  0.53021878  0.33123526  0.55535367  1
  O  O453  1  0.70879436  0.45887809  0.74844265  1
  Zn  Zn454  1  0.57256215  0.49405516  0.63968825  1
  H  H455  1  0.79886388  0.07400288  0.84724096  1
  H  H456  1  0.69681060  0.25683354  0.97945207  1
  H  H457  1  0.93739282  0.31200086  0.80791047  1
  Zn  Zn458  1  0.99159195  0.44767978  0.85047579  1
  C  C459  1  0.89106350  0.04942573  0.80711405  1
  H  H460  1  0.83148186  0.29759557  0.95857273  1
  C  C461  1  0.55708696  0.23950910  0.89882480  1
  C  C462  1  0.82148299  0.25568594  0.92760271  1
  C  C463  1  0.67117761  0.28292615  0.82307299  1
  H  H464  1  0.87017045  0.19774363  0.82249033  1
  C  C465  1  0.90711795  0.19452275  0.85633227  1
  O  O466  1  0.55960286  0.43341387  0.83624842  1
  C  C467  1  0.58167719  0.18119392  0.87668225  1
  H  H468  1  0.64213219  0.25575968  0.79238993  1
  C  C469  1  0.97156744  0.16226182  0.85393876  1
  H  H470  1  0.80426830  0.35716387  0.77868962  1
  C  C471  1  0.71771796  0.20795832  0.97919884  1
  C  C472  1  0.68473464  0.39001127  0.87507790  1
  H  H473  1  0.76907729  0.39518961  0.93356232  1
  H  H474  1  0.67107791  0.44334457  0.87978597  1
  C  C475  1  0.88969095  0.40156614  0.85481800  1
  C  C476  1  0.93835787  0.23002335  0.95275472  1
  Zn  Zn477  1  0.80365544  0.47635086  0.79529046  1
  C  C478  1  0.89086439  0.22659749  0.90735878  1
  C  C479  1  0.65099084  0.34794479  0.83621045  1
  C  C480  1  0.78371838  0.19646365  0.95439032  1
  H  H481  1  0.63655395  0.16480989  0.88405113  1
  C  C482  1  0.58037445  0.37956723  0.81791430  1
  C  C483  1  0.72948243  0.25659637  0.85381142  1
  C  C484  1  0.74465662  0.36373087  0.90300122  1
  C  C485  1  0.93624283  0.36631787  0.80858923  1
  H  H486  1  0.61189766  0.05462217  0.83336053  1
  C  C487  1  0.76435477  0.29523554  0.89286159  1
  H  H488  1  0.75032650  0.20402266  0.85083677  1
  C  C489  1  0.82957127  0.08691482  0.81023651  1
  C  C490  1  0.97557771  0.40746292  0.77171830  1
  H  H491  1  0.98576681  0.02953747  0.76171442  1
  C  C492  1  0.77618733  0.08209525  0.98279707  1
  H  H493  1  0.59539554  0.27227120  0.91929420  1
  O  O494  1  0.54237648  0.35308801  0.78427187  1
  H  H495  1  0.86058971  0.36649358  0.88436289  1
  C  C496  1  0.53085056  0.04215108  0.93570275  1
  C  C497  1  0.52664758  0.04406602  0.77150548  1
  C  C498  1  0.55375469  0.06826104  0.82779545  1
  C  C499  1  0.81464287  0.13146703  0.95786304  1
  H  H500  1  0.57779911  0.07066680  0.94414926  1
  Zn  Zn501  1  0.54363728  0.45197713  0.92043839  1
  C  C502  1  0.88294296  0.47885103  0.86121911  1
  C  C503  1  0.93570175  0.05674643  0.76087314  1
  C  C504  1  0.96298413  0.48019618  0.77193304  1
  H  H505  1  0.86329122  0.11302647  0.93585104  1
  C  C506  1  0.53756273  0.14252337  0.84087730  1
  O  O507  1  0.62177971  0.42005620  0.97867218  1
  C  C508  1  0.51349705  0.02912326  0.87449408  1
  O  O509  1  0.69470002  0.02205114  0.86391792  1
  C  C510  1  0.80479761  0.12856816  0.76795569  1
  H  H511  1  0.85160324  0.25230240  0.75517185  1
  H  H512  1  0.80065917  0.03156092  0.98302273  1
  H  H513  1  0.98415486  0.13261002  0.81665478  1
  O  O514  1  0.86305367  0.48592951  0.96091561  1
  H  H515  1  0.75187853  0.15276802  0.76648971  1
  H  H516  1  0.92322268  0.25767546  0.99019985  1
  C  C517  1  0.91148931  0.00207017  0.85345935  1
  O  O518  1  0.88521409  0.00091897  0.90026919  1
  C  C519  1  0.86399852  0.76708658  0.04276372  1
  O  O520  1  0.73977411  0.63361818  0.02665747  1
  C  C521  1  0.63652298  0.73391572  0.16069835  1
  C  C522  1  0.73275457  0.61413460  0.19708677  1
  Zn  Zn523  1  0.93022923  0.53134238  0.02159578  1
  C  C524  1  0.85791053  0.86336309  0.13704700  1
  C  C525  1  0.79710501  0.59068836  0.22002804  1
  C  C526  1  0.69537006  0.93569726  0.21654984  1
  C  C527  1  0.73053032  0.62376895  0.14067766  1
  C  C528  1  0.54929220  0.77508875  0.07180318  1
  C  C529  1  0.71488391  0.83516625  0.14970241  1
  C  C530  1  0.79009032  0.82754686  0.12103445  1
  H  H531  1  0.95908998  0.90307834  0.09440321  1
  H  H532  1  0.61866146  0.85734517  0.06154169  1
  C  C533  1  0.79460799  0.61182219  0.11256918  1
  H  H534  1  0.86039544  0.90296396  0.16815783  1
  H  H535  1  0.57084927  0.64447661  0.15527118  1
  O  O536  1  0.63630884  0.51664811  0.01742954  1
  C  C537  1  0.54309088  0.71102758  0.09764213  1
  Zn  Zn538  1  0.88397265  0.76664705  0.12622601  1
  Zn  Zn539  1  0.72120786  0.91036744  0.08785499  1
  C  C540  1  0.79526900  0.77715234  0.07629982  1
  C  C541  1  0.60982496  0.81004832  0.08433172  1
  C  C542  1  0.64953179  0.79418260  0.13270936  1
  H  H543  1  0.51625432  0.79415375  0.04003812  1
  C  C544  1  0.92496638  0.81104450  0.05339668  1
  H  H545  1  0.74612587  0.74937536  0.06532082  1
  H  H546  1  0.68229974  0.62208717  0.22016922  1
  H  H547  1  0.90873107  0.59088330  0.10431897  1
  H  H548  1  0.66844057  0.72046404  0.19701549  1
  C  C549  1  0.79654650  0.62262124  0.05082160  1
  C  C550  1  0.71555928  0.86669868  0.20446279  1
  C  C551  1  0.86086958  0.59527237  0.13334871  1
  H  H552  1  0.68552218  0.63864858  0.11583708  1
  C  C553  1  0.58555341  0.69090315  0.13985672  1
  C  C554  1  0.86240724  0.58619774  0.18992167  1
  H  H555  1  0.69930182  0.97389930  0.18391294  1
  H  H556  1  0.91142057  0.57294906  0.20962250  1
  C  C557  1  0.91960783  0.86349239  0.09421938  1
  H  H558  1  0.56039399  0.97264470  0.15714311  1
  Zn  Zn559  1  0.50596756  0.52189353  0.03122136  1
  C  C560  1  0.51390622  0.95032517  0.17468101  1
  O  O561  1  0.70372391  0.98368449  0.03196790  1
  H  H562  1  0.82116036  0.71052578  0.22923750  1
  O  O563  1  0.85071083  0.61450467  0.02195347  1
  H  H564  1  0.51559087  0.85207545  0.13537171  1
  H  H565  1  0.75646799  0.52420325  0.08318246  1
  H  H566  1  0.76988840  0.78485513  0.24874544  1
  C  C567  1  0.97589498  0.81531153  0.00642826  1
  H  H568  1  0.85582315  0.74459545  0.00295302  1
  C  C569  1  0.65427766  0.52722779  0.38465869  1
  Zn  Zn570  1  0.52892792  0.87376489  0.44800942  1
  C  C571  1  0.84835638  0.70617640  0.26939934  1
  C  C572  1  0.67025548  0.90291447  0.31886352  1
  C  C573  1  0.66566813  0.95246970  0.27390506  1
  C  C574  1  0.90209192  0.76694812  0.35619389  1
  O  O575  1  0.61734804  0.99076595  0.36592999  1
  C  C576  1  0.64098639  0.93166050  0.37203213  1
  O  O577  1  0.93781913  0.87807610  0.36724083  1
  C  C578  1  0.80085213  0.58473968  0.28234433  1
  H  H579  1  0.92450762  0.70229355  0.42746832  1
  C  C580  1  0.90850684  0.70197895  0.38209139  1
  H  H581  1  0.85929933  0.82038781  0.28574239  1
  O  O582  1  0.88980755  0.57529667  0.46383974  1
  H  H583  1  0.54280035  0.83825582  0.35890510  1
  O  O584  1  0.62839940  0.89830215  0.41326610  1
  C  C585  1  0.84900608  0.64097654  0.29810502  1
  O  O586  1  0.54930168  0.76982962  0.44835926  1
  Zn  Zn587  1  0.94299150  0.69377138  0.30231193  1
  C  C588  1  0.62879091  0.59040323  0.40335181  1
  C  C589  1  0.86958514  0.77196542  0.30267476  1
  C  C590  1  0.71237390  0.52522481  0.34744308  1
  Zn  Zn591  1  0.54876332  0.57042073  0.45806060  1
  C  C592  1  0.70975759  0.84155162  0.31255630  1
  C  C593  1  0.73422379  0.58621907  0.32253556  1
  C  C594  1  0.70011385  0.64531752  0.33696191  1
  H  H595  1  0.72078345  0.68754823  0.31345961  1
  H  H596  1  0.82248126  0.53757843  0.30017976  1
  C  C597  1  0.92045398  0.82541800  0.39282725  1
  C  C598  1  0.88030012  0.63725322  0.35297034  1
  H  H599  1  0.85668577  0.59510423  0.37872461  1
  C  C600  1  0.64601715  0.64928549  0.37765921  1
  H  H601  1  0.62037222  0.69590716  0.38749665  1
  H  H602  1  0.72904732  0.57132718  0.47926974  1
  H  H603  1  0.73257894  0.81379153  0.34799244  1
  O  O604  1  0.91331779  0.82101254  0.44323510  1
  Zn  Zn605  1  0.94698087  0.97521758  0.40339026  1
  O  O606  1  0.52899949  0.96844846  0.48024671  1
  O  O607  1  0.98905863  0.98225965  0.47698024  1
  C  C608  1  0.51078284  0.80094595  0.33847072  1
  C  C609  1  0.51604761  0.72696349  0.42148465  1
  C  C610  1  0.73459383  0.82698433  0.25276225  1
  Zn  Zn611  1  0.62678724  0.85677434  0.25119139  1
  H  H612  1  0.71745607  0.88698907  0.67268898  1
  O  O613  1  0.88055441  0.91599190  0.53987028  1
  H  H614  1  0.97528391  0.62144952  0.69023280  1
  O  O615  1  0.92361285  0.59529898  0.54690019  1
  C  C616  1  0.65140631  0.59441194  0.72680814  1
  C  C617  1  0.92715939  0.62646869  0.71474093  1
  H  H618  1  0.56376589  0.65307139  0.62977985  1
  H  H619  1  0.98595699  0.79944555  0.73786651  1
  C  C620  1  0.61789715  0.67079041  0.64046410  1
  C  C621  1  0.73201544  0.60290675  0.51851091  1
  H  H622  1  0.86779726  0.67388263  0.60540171  1
  C  C623  1  0.74499228  0.66875359  0.62979521  1
  Zn  Zn624  1  0.76110589  0.57137210  0.60247782  1
  H  H625  1  0.74563593  0.70194968  0.66514814  1
  H  H626  1  0.69297136  0.76400319  0.69555155  1
  H  H627  1  0.86263692  0.80658058  0.58724269  1
  C  C628  1  0.85916145  0.90113946  0.63378433  1
  H  H629  1  0.71118293  0.83806038  0.73587902  1
  C  C630  1  0.66239648  0.59623663  0.56460222  1
  O  O631  1  0.61909880  0.54888327  0.56492537  1
  C  C632  1  0.80961520  0.62155872  0.53522718  1
  C  C633  1  0.67799686  0.64064790  0.61290128  1
  C  C634  1  0.84764398  0.79571763  0.67676564  1
  C  C635  1  0.58551931  0.77418410  0.58169562  1
  H  H636  1  0.84668275  0.73938704  0.67513015  1
  C  C637  1  0.83968456  0.89121379  0.73206915  1
  C  C638  1  0.87224248  0.94494017  0.58448370  1
  C  C639  1  0.85004007  0.93190260  0.68597524  1
  C  C640  1  0.85700564  0.83192341  0.62695420  1
  C  C641  1  0.59822560  0.84314701  0.57039548  1
  C  C642  1  0.61902336  0.75082215  0.63054497  1
  Zn  Zn643  1  0.59928041  0.93918148  0.54497001  1
  H  H644  1  0.55345309  0.74037612  0.55766561  1
  H  H645  1  0.96365118  0.91895686  0.72203575  1
  C  C646  1  0.81307334  0.66853384  0.58916192  1
  H  H647  1  0.99998067  0.75534960  0.62100175  1
  C  C648  1  0.61674085  0.65006091  0.70481394  1
  C  C649  1  0.68244492  0.85657941  0.64679166  1
  H  H650  1  0.68112633  0.56171364  0.69770499  1
  C  C651  1  0.87085171  0.58376976  0.70515623  1
  C  C652  1  0.87907354  0.59501778  0.51213883  1
  C  C653  1  0.64347229  0.88362422  0.60247649  1
  C  C654  1  0.66655877  0.78934230  0.66155337  1
  H  H655  1  0.56186924  0.73866179  0.71937897  1
  C  C656  1  0.84346736  0.82142786  0.72980917  1
  O  O657  1  0.95247935  0.51683292  0.64905786  1
  C  C658  1  0.89004650  0.52586575  0.66794660  1
  H  H659  1  0.51535947  0.89423620  0.70277964  1
  C  C660  1  0.51692594  0.94838613  0.70938589  1
  Zn  Zn661  1  0.75902803  0.71519179  0.51474357  1
  H  H662  1  0.76506830  0.55615206  0.71843169  1
  C  C663  1  0.80331459  0.59650288  0.72523816  1
  H  H664  1  0.85008829  0.98620275  0.69499546  1
  C  C665  1  0.58138517  0.69178313  0.73887055  1
  O  O666  1  0.51699958  0.50704567  0.70862460  1
  H  H667  1  0.56278514  0.51747126  0.72557868  1
  H  H668  1  0.97915083  0.50804627  0.73443759  1
  C  C669  1  0.91227087  0.68852927  0.74001247  1
  H  H670  1  0.95126724  0.72795028  0.73891225  1
  Zn  Zn671  1  0.98382743  0.88708802  0.50431052  1
  H  H672  1  0.54684640  0.71826966  0.82163545  1
  O  O673  1  0.63348387  0.56160553  0.89705841  1
  H  H674  1  0.73681267  0.66057044  0.77328529  1
  C  C675  1  0.64447289  0.58371541  0.78355315  1
  H  H676  1  0.56688146  0.94200148  0.78857108  1
  Zn  Zn677  1  0.71042990  0.57257733  0.96009127  1
  C  C678  1  0.60407580  0.62421253  0.81738345  1
  H  H679  1  0.86363593  0.78300109  0.81366358  1
  C  C680  1  0.69649275  0.98824411  0.82431456  1
  Zn  Zn681  1  0.53971727  0.93743553  0.91921932  1
  C  C682  1  0.57301892  0.68145477  0.79514908  1
  C  C683  1  0.84907462  0.50576000  0.91516668  1
  H  H684  1  0.91278580  0.56871136  0.81516737  1
  C  C685  1  0.59580196  0.60887530  0.87709276  1
  C  C686  1  0.73702241  0.74007112  0.85574336  1
  C  C687  1  0.61996525  0.78823731  0.85033258  1
  O  O688  1  0.55256108  0.63487920  0.90821155  1
  Zn  Zn689  1  0.94916703  0.96010905  0.96759047  1
  O  O690  1  0.69798648  0.95629497  0.78529105  1
  H  H691  1  0.83768835  0.91565108  0.77257427  1
  C  C692  1  0.82902880  0.77312707  0.77979133  1
  H  H693  1  0.65915299  0.73847351  0.92091822  1
  O  O694  1  0.99098475  0.76309178  0.98285741  1
  C  C695  1  0.75317815  0.77356641  0.80272516  1
  O  O696  1  0.54372703  0.77900270  0.93247251  1
  C  C697  1  0.67219788  0.75389778  0.88033759  1
  C  C698  1  0.54898693  0.79163986  0.88056023  1
  O  O699  1  0.50128864  0.81513904  0.85430403  1
  H  H700  1  0.77749344  0.70947417  0.87799570  1
  C  C701  1  0.63171778  0.81610863  0.79889589  1
  H  H702  1  0.67168830  0.53757369  0.80098727  1
  C  C703  1  0.78867977  0.65204357  0.75509298  1
  O  O704  1  0.99773100  0.86952777  0.98824957  1
  C  C705  1  0.69891064  0.81019693  0.77442559  1
  C  C706  1  0.84274674  0.70036040  0.75663594  1
  C  C707  1  0.90796684  0.51559370  0.80993196  1
  O  O708  1  0.96184632  0.96195627  0.84189790  1
  H  H709  1  0.58881575  0.84229369  0.78016510  1
  C  C710  1  0.53861312  0.97334244  0.75855843  1
  O  O711  1  0.79899076  0.54414072  0.90831960  1
