# generated using pymatgen
data_CuH16(C7N)4
_symmetry_space_group_name_H-M   'P 1'
_cell_length_a   20.04163689
_cell_length_b   18.26446048
_cell_length_c   15.68253343
_cell_angle_alpha   90.00000000
_cell_angle_beta   90.00000000
_cell_angle_gamma   90.00000000
_symmetry_Int_Tables_number   1
_chemical_formula_structural   CuH16(C7N)4
_chemical_formula_sum   'Cu12 H192 C336 N48'
_cell_volume   5740.58642134
_cell_formula_units_Z   12
loop_
 _symmetry_equiv_pos_site_id
 _symmetry_equiv_pos_as_xyz
  1  'x, y, z'
loop_
 _atom_site_type_symbol
 _atom_site_label
 _atom_site_symmetry_multiplicity
 _atom_site_fract_x
 _atom_site_fract_y
 _atom_site_fract_z
 _atom_site_occupancy
  N  N0  1  0.38925931  0.48220214  0.07171925  1
  C  C1  1  0.20117802  0.20904858  0.18910238  1
  H  H2  1  0.46770674  0.05731162  0.20681486  1
  C  C3  1  0.26140891  0.22033930  0.14707592  1
  C  C4  1  0.04759417  0.38570412  0.18672164  1
  C  C5  1  0.02235211  0.09457937  0.14523537  1
  H  H6  1  0.27481143  0.18913514  0.09097418  1
  H  H7  1  0.16761705  0.16995432  0.15570015  1
  C  C8  1  0.09197831  0.42734397  0.13351122  1
  H  H9  1  0.06216086  0.35003287  0.24310394  1
  H  H10  1  0.24989569  0.01596407  0.16811835  1
  H  H11  1  0.39895305  0.25497183  0.09105552  1
  C  C12  1  0.30923029  0.27334708  0.18256679  1
  H  H13  1  0.10995149  0.26136694  0.02488141  1
  C  C14  1  0.20519509  0.46820395  0.08758859  1
  C  C15  1  0.03278096  0.05924310  0.06378401  1
  N  N16  1  0.05976319  0.09100749  0.21319104  1
  C  C17  1  0.06249158  0.47198309  0.06406872  1
  C  C18  1  0.14419396  0.02906146  0.13164193  1
  C  C19  1  0.16508830  0.42441067  0.13912710  1
  C  C20  1  0.12234200  0.06751610  0.20537345  1
  C  C21  1  0.37728387  0.27987761  0.15124352  1
  H  H22  1  0.18920212  0.38567768  0.18283106  1
  N  N23  1  0.41878285  0.32890060  0.18335889  1
  H  H24  1  0.25982233  0.46396784  0.09529238  1
  C  C25  1  0.09726659  0.02298298  0.06122515  1
  C  C26  1  0.42326539  0.02627648  0.23261509  1
  H  H27  1  0.16361021  0.38655118  0.00230633  1
  C  C28  1  0.13677609  0.31786827  0.40660426  1
  H  H29  1  0.11953518  0.34211340  0.46614762  1
  C  C30  1  0.24632279  0.39430915  0.40358827  1
  H  H31  1  0.44734047  0.02611195  0.39582563  1
  C  C32  1  0.18548914  0.12496132  0.39061784  1
  C  C33  1  0.36001026  0.13291821  0.29145259  1
  N  N34  1  0.13788419  0.08472289  0.42035230  1
  C  C35  1  0.33751489  0.36329975  0.29911086  1
  H  H36  1  0.34162076  0.44410246  0.40811286  1
  C  C37  1  0.01028927  0.43944329  0.40125075  1
  H  H38  1  0.14467875  0.07507877  0.27143827  1
  C  C39  1  0.22682211  0.30229795  0.29762779  1
  H  H40  1  0.30196060  0.22000066  0.35314675  1
  C  C41  1  0.31200360  0.40347869  0.37126477  1
  C  C42  1  0.20130026  0.34116366  0.37267949  1
  C  C43  1  0.25010773  0.11056841  0.35208483  1
  N  N44  1  0.09350340  0.27062868  0.37355654  1
  H  H45  1  0.17137911  0.18234631  0.40282037  1
  C  C46  1  0.36462739  0.05675629  0.27256710  1
  C  C47  1  0.05971670  0.48561742  0.44179180  1
  C  C48  1  0.41099717  0.22380041  0.49160798  1
  H  H49  1  0.44828262  0.39418831  0.27959176  1
  C  C50  1  0.25547007  0.03382420  0.33211559  1
  C  C51  1  0.30452687  0.16153658  0.33402809  1
  C  C52  1  0.14650198  0.01687106  0.39570455  1
  C  C53  1  0.46608703  0.35340031  0.48499674  1
  H  H54  1  0.23195411  0.42598218  0.46331009  1
  H  H55  1  0.07404660  0.20739349  0.27659674  1
  C  C56  1  0.42406163  0.02518574  0.45777545  1
  Cu  Cu57  1  0.01313643  0.24667069  0.43119516  1
  C  C58  1  0.11410272  0.24466927  0.30116231  1
  C  C59  1  0.31200945  0.00117661  0.29129761  1
  H  H60  1  0.45712364  0.19080443  0.48414303  1
  Cu  Cu61  1  0.06716465  0.13182636  0.48595859  1
  H  H62  1  0.39794742  0.17276529  0.27325123  1
  H  H63  1  0.35982999  0.12222994  0.49478262  1
  C  C64  1  0.35482124  0.18121848  0.49378193  1
  H  H65  1  0.00756128  0.28306751  0.27051026  1
  C  C66  1  0.29228010  0.31065647  0.26015215  1
  C  C67  1  0.17972930  0.25106422  0.26221688  1
  C  C68  1  0.40353256  0.36228540  0.25762214  1
  C  C69  1  0.34894540  0.33425685  0.52916701  1
  C  C70  1  0.42778487  0.06307083  0.61219390  1
  H  H71  1  0.12653068  0.28908322  0.60965835  1
  C  C72  1  0.33330362  0.02556498  0.71051782  1
  C  C73  1  0.22819921  0.31614498  0.57132502  1
  C  C74  1  0.40459589  0.45679795  0.52793593  1
  C  C75  1  0.27978917  0.19840066  0.71418281  1
  C  C76  1  0.46023246  0.10226814  0.68123728  1
  C  C77  1  0.03168965  0.43249861  0.66989868  1
  H  H78  1  0.22402874  0.11024182  0.52481992  1
  C  C79  1  0.28330300  0.43590132  0.58390640  1
  H  H80  1  0.20426778  0.06397292  0.74439031  1
  H  H81  1  0.28122569  0.49215328  0.61265914  1
  C  C82  1  0.34507227  0.41382103  0.54297282  1
  C  C83  1  0.28976952  0.21166494  0.51437992  1
  H  H84  1  0.08642345  0.17701194  0.64220483  1
  C  C85  1  0.06595561  0.48748483  0.53394453  1
  H  H86  1  0.34305117  0.28209038  0.65378804  1
  C  C87  1  0.23152230  0.16917031  0.53751040  1
  N  N88  1  0.17171253  0.19532327  0.56215020  1
  C  C89  1  0.22803907  0.39326030  0.59598312  1
  C  C90  1  0.17238389  0.26810196  0.57995528  1
  C  C91  1  0.28834864  0.28908259  0.53334937  1
  C  C92  1  0.03857579  0.20066129  0.64434672  1
  H  H93  1  0.29689701  0.15729579  0.66862089  1
  H  H94  1  0.34928169  0.41406855  0.72058548  1
  C  C95  1  0.30616550  0.26719862  0.70267272  1
  C  C96  1  0.36270396  0.03087420  0.62680318  1
  C  C97  1  0.02326351  0.43793536  0.57901168  1
  C  C98  1  0.45935482  0.05793466  0.52750916  1
  H  H99  1  0.18582238  0.41503677  0.63141994  1
  C  C100  1  0.01422305  0.24324217  0.71568919  1
  N  N101  1  0.01047100  0.17670849  0.57500687  1
  N  N102  1  0.46200585  0.42533132  0.50121495  1
  C  C103  1  0.08216018  0.47782438  0.70507919  1
  C  C104  1  0.41075802  0.30312752  0.50384795  1
  C  C105  1  0.20185604  0.10927123  0.78984858  1
  C  C106  1  0.22883690  0.18200352  0.77634495  1
  C  C107  1  0.16445677  0.21450909  0.91327309  1
  H  H108  1  0.28698869  0.26600686  0.95147291  1
  H  H109  1  0.35452241  0.05677920  0.84399984  1
  H  H110  1  0.45457586  0.12929634  0.81998669  1
  C  C111  1  0.41558310  0.32251911  0.91436134  1
  C  C112  1  0.37246176  0.05644794  0.77852179  1
  C  C113  1  0.45014516  0.19653969  0.94458620  1
  H  H114  1  0.25944344  0.14281700  0.96068895  1
  H  H115  1  0.06375967  0.34085414  0.89464046  1
  N  N116  1  0.15317395  0.09953952  0.84268471  1
  C  C117  1  0.25225926  0.42831627  0.86898546  1
  C  C118  1  0.42904355  0.10087045  0.76348795  1
  C  C119  1  0.13720706  0.14209370  0.90509995  1
  C  C120  1  0.21658058  0.36179089  0.88922460  1
  C  C121  1  0.36530929  0.10071779  0.97998765  1
  C  C122  1  0.14655953  0.27225188  0.97305088  1
  C  C123  1  0.17367378  0.34120107  0.95828325  1
  N  N124  1  0.29839181  0.45181379  0.81596016  1
  C  C125  1  0.23912155  0.30339217  0.83103975  1
  C  C126  1  0.20660710  0.23504987  0.83974030  1
  C  C127  1  0.31013209  0.39577391  0.76293453  1
  C  C128  1  0.39675577  0.24997241  0.94151981  1
  C  C129  1  0.48898175  0.07224265  0.98520898  1
  H  H130  1  0.11037259  0.26116901  0.78542879  1
  C  C131  1  0.31340544  0.15513651  0.96873177  1
  C  C132  1  0.43315723  0.12539364  0.97479109  1
  H  H133  1  0.09543558  0.12264392  0.94476460  1
  C  C134  1  0.35729928  0.02232305  0.99240802  1
  N  N135  1  0.47734092  0.34207454  0.88669798  1
  C  C136  1  0.32691560  0.22742123  0.95324560  1
  C  C137  1  0.28491628  0.32133645  0.76265558  1
  H  H138  1  0.38444332  0.36962947  0.90239607  1
  C  C139  1  0.03114430  0.32227485  0.84337304  1
  C  C140  1  0.05678084  0.27647506  0.78150678  1
  H  H141  1  0.25475299  0.47439416  0.91252955  1
  H  H142  1  0.08403876  0.48195913  0.77698248  1
  H  H143  1  0.45218732  0.43632104  0.99157487  1
  C  C144  1  0.00209042  0.01989373  0.92730583  1
  C  C145  1  0.41991184  0.48300234  0.99732077  1
  C  C146  1  0.21039223  0.99736330  0.12078329  1
  C  C147  1  0.23047378  0.95272318  0.05306079  1
  H  H148  1  0.08955213  0.58461979  0.11268939  1
  H  H149  1  0.28120158  0.92617240  0.04872126  1
  H  H150  1  0.42252380  0.62769505  0.17532297  1
  C  C151  1  0.17526745  0.51479101  0.02523435  1
  C  C152  1  0.31789718  0.67598012  0.07815868  1
  C  C153  1  0.09799066  0.69818377  0.15279343  1
  H  H154  1  0.01526270  0.54490142  0.22636468  1
  H  H155  1  0.16003288  0.68811688  0.02391540  1
  C  C156  1  0.07541888  0.62411982  0.16347873  1
  C  C157  1  0.35625504  0.54318471  0.09837647  1
  N  N158  1  0.44046696  0.95600247  0.22952304  1
  H  H159  1  0.29295943  0.67874644  0.14111437  1
  C  C160  1  0.31709764  0.73853378  0.02946153  1
  C  C161  1  0.35528853  0.61064531  0.05433097  1
  N  N162  1  0.16347398  0.78534346  0.07090004  1
  C  C163  1  0.09345062  0.82801172  0.19431146  1
  C  C164  1  0.46587120  0.65005837  0.20727288  1
  C  C165  1  0.14088622  0.72046397  0.08101488  1
  C  C166  1  0.13535814  0.83622050  0.11895233  1
  H  H167  1  0.14988757  0.88977233  0.08965588  1
  H  H168  1  0.41157603  0.85554379  0.24059278  1
  C  C169  1  0.07632243  0.75311475  0.21190413  1
  H  H170  1  0.33284275  0.52885443  0.15551298  1
  H  H171  1  0.28345181  0.78460327  0.04798450  1
  C  C172  1  0.39180188  0.90985654  0.24957506  1
  H  H173  1  0.18053522  0.63805202  0.21500863  1
  C  C174  1  0.02865821  0.60291570  0.22358624  1
  C  C175  1  0.49840776  0.81097740  0.00560589  1
  H  H176  1  0.49624784  0.95344334  0.03705247  1
  C  C177  1  0.10326962  0.51607801  0.00918446  1
  H  H178  1  0.07928219  0.93981078  0.24266994  1
  N  N179  1  0.26256768  0.58270265  0.24041178  1
  N  N180  1  0.40410133  0.97216981  0.00440147  1
  C  C181  1  0.46647109  0.99925947  0.00667711  1
  C  C182  1  0.00739892  0.78600850  0.33766150  1
  C  C183  1  0.46851674  0.82490050  0.39215591  1
  H  H184  1  0.00637141  0.90346159  0.36835142  1
  C  C185  1  0.31402638  0.55983351  0.28354609  1
  H  H186  1  0.36226286  0.81326321  0.39970416  1
  C  C187  1  0.33349687  0.59585958  0.36088845  1
  C  C188  1  0.40589430  0.74537992  0.29799786  1
  C  C189  1  0.06564102  0.88093273  0.25231508  1
  C  C190  1  0.22095499  0.63523268  0.26613920  1
  C  C191  1  0.10848270  0.52697829  0.39072315  1
  C  C192  1  0.48387687  0.88469049  0.45158398  1
  H  H193  1  0.42743468  0.54396274  0.37712483  1
  C  C194  1  0.39695921  0.58880954  0.40384687  1
  C  C195  1  0.30864334  0.70053220  0.45650901  1
  C  C196  1  0.00998412  0.65319870  0.28916286  1
  C  C197  1  0.28863841  0.65814903  0.38268993  1
  C  C198  1  0.16814571  0.54963344  0.42922342  1
  C  C199  1  0.23118957  0.68190637  0.33686304  1
  H  H200  1  0.27590729  0.81084368  0.29690059  1
  C  C201  1  0.18534606  0.73988089  0.36550630  1
  C  C202  1  0.27126631  0.87315968  0.30604586  1
  C  C203  1  0.40615784  0.79620180  0.36414746  1
  H  H204  1  0.44391341  0.91382897  0.48696971  1
  H  H205  1  0.17413805  0.86996767  0.35569617  1
  H  H206  1  0.20377187  0.57315927  0.38328994  1
  C  C207  1  0.26257757  0.76061973  0.48024281  1
  C  C208  1  0.21244292  0.90559920  0.33361099  1
  H  H209  1  0.13499694  0.74644334  0.33600285  1
  C  C210  1  0.32538311  0.92366830  0.28301074  1
  C  C211  1  0.19939638  0.77612617  0.44078842  1
  C  C212  1  0.02928159  0.73053548  0.28035036  1
  H  H213  1  0.15872774  0.81226596  0.46649180  1
  C  C214  1  0.41416876  0.62976923  0.47454462  1
  C  C215  1  0.02940523  0.86082985  0.32488408  1
  H  H216  1  0.33247327  0.96895673  0.42164140  1
  H  H217  1  0.35870747  0.72075064  0.27617031  1
  H  H218  1  0.33077271  0.50995753  0.25031284  1
  C  C219  1  0.46409426  0.71212417  0.26431758  1
  C  C220  1  0.20265275  0.98228938  0.35729876  1
  H  H221  1  0.11262152  0.52507178  0.32067742  1
  H  H222  1  0.10036376  0.99162090  0.41958646  1
  C  C223  1  0.35981753  0.99458457  0.47608445  1
  Cu  Cu224  1  0.45011685  0.86237421  0.60357434  1
  H  H225  1  0.05411405  0.62062158  0.56173217  1
  Cu  Cu226  1  0.30993763  0.63987699  0.71269537  1
  C  C227  1  0.17513499  0.55628449  0.52035514  1
  H  H228  1  0.40552854  0.74130206  0.71807285  1
  Cu  Cu229  1  0.34975571  0.86124527  0.69784623  1
  H  H230  1  0.25893870  0.84373593  0.57455848  1
  Cu  Cu231  1  0.44832676  0.96057037  0.70752361  1
  N  N232  1  0.24053695  0.94948158  0.65471570  1
  C  C233  1  0.19150404  0.55560725  0.69571231  1
  H  H234  1  0.41704097  0.73323674  0.62089169  1
  C  C235  1  0.13489503  0.70262800  0.68151651  1
  C  C236  1  0.02933520  0.63546275  0.62389992  1
  C  C237  1  0.22547173  0.59139962  0.57279998  1
  H  H238  1  0.41110786  0.51420751  0.54425948  1
  C  C239  1  0.27241261  0.98078049  0.71925442  1
  C  C240  1  0.32735734  0.99664126  0.55761240  1
  H  H241  1  0.26411272  0.62737393  0.54465461  1
  N  N242  1  0.33976344  0.78777813  0.60532844  1
  C  C243  1  0.37334079  0.72953869  0.58054147  1
  C  C244  1  0.28679614  0.79389764  0.55664126  1
  H  H245  1  0.17388579  0.68987885  0.63080850  1
  N  N246  1  0.23453120  0.59685967  0.65449449  1
  C  C247  1  0.06483383  0.68157804  0.68589747  1
  H  H248  1  0.22297203  0.94953266  0.52896183  1
  C  C249  1  0.26173442  0.96705047  0.57794287  1
  H  H250  1  0.46132862  0.62215248  0.50608456  1
  C  C251  1  0.13348437  0.51647208  0.66483296  1
  Cu  Cu252  1  0.25788702  0.76048518  0.73990077  1
  N  N253  1  0.16534409  0.74329649  0.73570131  1
  C  C254  1  0.12345066  0.52322183  0.57245578  1
  C  C255  1  0.36605271  0.68362951  0.50684553  1
  H  H256  1  0.16273413  0.80492553  0.83925371  1
  H  H257  1  0.24264498  0.97237738  0.77881939  1
  C  C258  1  0.41946625  0.54431158  0.94173641  1
  Cu  Cu259  1  0.26672065  0.66402895  0.85623853  1
  C  C260  1  0.38474057  0.61068302  0.96899814  1
  Cu  Cu261  1  0.32989661  0.54879030  0.82279426  1
  C  C262  1  0.45495533  0.55089246  0.86029428  1
  N  N263  1  0.14734348  0.90801081  0.84539336  1
  C  C264  1  0.45087495  0.61112277  0.81139839  1
  C  C265  1  0.37654647  0.67538646  0.91905584  1
  C  C266  1  0.13007795  0.60754764  0.90514329  1
  C  C267  1  0.21126968  0.56556904  0.97055208  1
  H  H268  1  0.43736067  0.86568970  0.83750216  1
  C  C269  1  0.08778012  0.94496129  0.84308784  1
  C  C270  1  0.02568611  0.76246029  0.90312943  1
  H  H271  1  0.05824554  0.93202039  0.78684353  1
  H  H272  1  0.30953232  0.85072637  0.88844771  1
  C  C273  1  0.40742081  0.67250426  0.83318637  1
  H  H274  1  0.30722064  0.99990525  0.98084535  1
  C  C275  1  0.13164225  0.76255212  0.80353087  1
  N  N276  1  0.19595163  0.61143476  0.90918384  1
  C  C277  1  0.33745502  0.79800377  0.87943490  1
  C  C278  1  0.34374378  0.74115169  0.94232164  1
  C  C279  1  0.48666712  0.87924169  0.85700918  1
  H  H280  1  0.11742997  0.64459677  0.85481383  1
  C  C281  1  0.06433423  0.74157448  0.82733584  1
  C  C282  1  0.00493308  0.57289858  0.94590682  1
  H  H283  1  0.48179771  0.50068811  0.83966677  1
  N  N284  1  0.35827009  0.79761580  0.80057941  1
  C  C285  1  0.07634867  0.56858760  0.94973377  1
  C  C286  1  0.39251401  0.73709281  0.78612641  1
  C  C287  1  0.02801918  0.70317383  0.76128778  1
  C  C288  1  0.19319867  0.91140906  0.90488234  1
  H  H289  1  0.23318964  0.87330973  0.88926061  1
  H  H290  1  0.04553048  0.79922323  0.95154984  1
  C  C291  1  0.06641946  0.98309935  0.91745874  1
  H  H292  1  0.26512075  0.57769394  0.98349305  1
  C  C293  1  0.18184215  0.94979481  0.98386926  1
  C  C294  1  0.11482715  0.98076253  0.98823164  1
  H  H295  1  0.44821917  0.78419841  0.99838507  1
  H  H296  1  0.47779144  0.61347757  0.75227409  1
  H  H297  1  0.20203183  0.56744520  0.76226938  1
  H  H298  1  0.98220680  0.12701410  0.17405086  1
  C  C299  1  0.94302441  0.26659660  0.10806355  1
  N  N300  1  0.57008504  0.46138319  0.18092822  1
  H  H301  1  0.97874140  0.31444641  0.10358619  1
  N  N302  1  0.56855117  0.04531458  0.16495672  1
  C  C303  1  0.61024765  0.40857556  0.16091653  1
  H  H304  1  0.54975354  0.15239187  0.14235207  1
  C  C305  1  0.76593336  0.09193759  0.20711774  1
  H  H306  1  0.90134921  0.43731532  0.13613741  1
  H  H307  1  0.70850487  0.29091580  0.11549003  1
  C  C308  1  0.70775354  0.31263990  0.18074251  1
  C  C309  1  0.93119622  0.22782559  0.18590383  1
  H  H310  1  0.70216111  0.07507494  0.02000643  1
  H  H311  1  0.60128711  0.40765608  0.08953540  1
  C  C312  1  0.95527406  0.43605394  0.12451789  1
  H  H313  1  0.79198713  0.24763312  0.22001498  1
  C  C314  1  0.65913164  0.36645458  0.20932996  1
  C  C315  1  0.83857031  0.15912843  0.11192339  1
  C  C316  1  0.77791829  0.11491020  0.12072460  1
  H  H317  1  0.64093724  0.48803388  0.05448267  1
  H  H318  1  0.71219033  0.35883524  0.03832504  1
  C  C319  1  0.87776165  0.17279550  0.18660673  1
  H  H320  1  0.71860996  0.06155805  0.22396426  1
  C  C321  1  0.57153995  0.11549995  0.19173824  1
  H  H322  1  0.94197771  0.01306199  0.20916288  1
  C  C323  1  0.74721795  0.10498199  0.03633625  1
  C  C324  1  0.91257721  0.24346199  0.03347090  1
  C  C325  1  0.85889430  0.19032537  0.03014341  1
  N  N326  1  0.98205738  0.39952624  0.18944795  1
  C  C327  1  0.75275639  0.28572335  0.23989305  1
  C  C328  1  0.99204671  0.47892522  0.06071391  1
  H  H329  1  0.92933710  0.07432434  0.01153713  1
  H  H330  1  0.90044484  0.15088636  0.40244824  1
  H  H331  1  0.56121927  0.49104393  0.44729965  1
  C  C332  1  0.60499628  0.43541206  0.33224652  1
  C  C333  1  0.63636672  0.00910060  0.28757201  1
  C  C334  1  0.67014105  0.17505438  0.42697237  1
  C  C335  1  0.58964116  0.21213982  0.31501863  1
  C  C336  1  0.56671523  0.46819197  0.26416738  1
  C  C337  1  0.97256519  0.05124313  0.37522744  1
  N  N338  1  0.96797232  0.39789072  0.44352360  1
  C  C339  1  0.67188510  0.09921299  0.39455084  1
  C  C340  1  0.70327373  0.36160226  0.36067943  1
  C  C341  1  0.75562708  0.31367720  0.32791685  1
  H  H342  1  0.79305715  0.07336753  0.34122490  1
  C  C343  1  0.59899360  0.45089059  0.42222175  1
  C  C344  1  0.63490111  0.08421130  0.31763417  1
  C  C345  1  0.62320080  0.22849699  0.38920553  1
  C  C346  1  0.65584141  0.38766267  0.29738334  1
  C  C347  1  0.70301765  0.37715312  0.45285816  1
  H  H348  1  0.99776935  0.43189188  0.33179000  1
  C  C349  1  0.86466272  0.14455153  0.27004509  1
  H  H350  1  0.84181796  0.25673800  0.37704252  1
  C  C351  1  0.70959253  0.04192625  0.43701044  1
  H  H352  1  0.99967252  0.08930266  0.33132260  1
  C  C353  1  0.90737852  0.17392333  0.33867507  1
  C  C354  1  0.80416919  0.29530022  0.39335818  1
  H  H355  1  0.62072045  0.28835342  0.40362269  1
  C  C356  1  0.80700690  0.09802981  0.27668561  1
  N  N357  1  0.95869054  0.21394753  0.33991072  1
  H  H358  1  0.56287369  0.25598236  0.28439901  1
  C  C359  1  0.71569894  0.17858062  0.49786176  1
  H  H360  1  0.55254094  0.10313449  0.45769873  1
  C  C361  1  0.64496519  0.41953804  0.47609520  1
  N  N362  1  0.80855905  0.31581402  0.47300484  1
  N  N363  1  0.99880420  0.06515374  0.45144833  1
  H  H364  1  0.51849921  0.33825766  0.47760840  1
  C  C365  1  0.59665947  0.14015787  0.27326831  1
  C  C366  1  0.96514435  0.24639503  0.26541112  1
  C  C367  1  0.56809825  0.46595306  0.73403122  1
  H  H368  1  0.54315600  0.19435531  0.68210994  1
  C  C369  1  0.51873674  0.14398319  0.65216258  1
  C  C370  1  0.63634332  0.28011678  0.66707671  1
  C  C371  1  0.94425425  0.25847284  0.71613786  1
  H  H372  1  0.92286932  0.16550995  0.52530101  1
  C  C373  1  0.52370863  0.09493064  0.51879475  1
  C  C374  1  0.62346172  0.34801492  0.71303470  1
  C  C375  1  0.75953214  0.35601425  0.50482418  1
  C  C376  1  0.81122763  0.29117222  0.70855442  1
  N  N377  1  0.55186643  0.13532095  0.58021167  1
  H  H378  1  0.62927836  0.05898332  0.63893218  1
  H  H379  1  0.93707883  0.36085546  0.55652777  1
  H  H380  1  0.76740529  0.36483876  0.57457887  1
  C  C381  1  0.83858767  0.24974688  0.64603511  1
  C  C382  1  0.72538434  0.01171564  0.68661918  1
  C  C383  1  0.76526101  0.07632370  0.70038591  1
  H  H384  1  0.80710811  0.23177694  0.59418301  1
  H  H385  1  0.86234544  0.12430848  0.71758067  1
  H  H386  1  0.74083037  0.13156892  0.68635659  1
  C  C387  1  0.90784040  0.22943037  0.64389432  1
  C  C388  1  0.83362769  0.07338783  0.71785663  1
  C  C389  1  0.94713052  0.19142306  0.57949646  1
  H  H390  1  0.62646157  0.25924074  0.59948861  1
  H  H391  1  0.78551108  0.02712697  0.54935759  1
  C  C392  1  0.58228163  0.40518053  0.68344741  1
  H  H393  1  0.64260289  0.42627648  0.54439165  1
  N  N394  1  0.75491216  0.12770759  0.53191482  1
  C  C395  1  0.96640596  0.02556265  0.50612616  1
  H  H396  1  0.55628640  0.40679871  0.62070801  1
  C  C397  1  0.97352720  0.39864669  0.52819900  1
  N  N398  1  0.66515181  0.22394823  0.70366052  1
  H  H399  1  0.75516059  0.29663135  0.70987111  1
  H  H400  1  0.99887054  0.39652151  0.70626603  1
  H  H401  1  0.98459590  0.04796585  0.56905193  1
  H  H402  1  0.74693340  0.47828095  0.54900274  1
  H  H403  1  0.72305681  0.22536004  0.54191319  1
  N  N404  1  0.75398814  0.49307882  0.67347854  1
  C  C405  1  0.65991956  0.00958003  0.65182573  1
  C  C406  1  0.86935501  0.00789580  0.73055624  1
  H  H407  1  0.98082905  0.03906491  0.73277800  1
  C  C408  1  0.75413663  0.05951334  0.50509201  1
  H  H409  1  0.83144999  0.19067339  0.89264873  1
  H  H410  1  0.56791991  0.00157982  0.76986809  1
  C  C411  1  0.81877745  0.16970916  0.95729458  1
  H  H412  1  0.92788571  0.27150270  0.97605652  1
  C  C413  1  0.84697095  0.32089267  0.78254907  1
  H  H414  1  0.56945591  0.31627474  0.87139709  1
  N  N415  1  0.85711457  0.39149888  0.91460241  1
  C  C416  1  0.92277025  0.38365403  0.90763534  1
  C  C417  1  0.81938024  0.36104190  0.85416033  1
  C  C418  1  0.51840828  0.21766026  0.92415970  1
  H  H419  1  0.76570329  0.37102243  0.85152226  1
  C  C420  1  0.68166832  0.28586424  0.83592899  1
  H  H421  1  0.71842344  0.23646145  0.94943104  1
  C  C422  1  0.65000904  0.35199408  0.79871251  1
  H  H423  1  0.72106316  0.17109913  0.79652995  1
  C  C424  1  0.63613460  0.41350727  0.85150715  1
  N  N425  1  0.76681803  0.12386312  0.95957849  1
  C  C426  1  0.52473738  0.29170457  0.89158263  1
  C  C427  1  0.69981321  0.28957246  0.92573635  1
  C  C428  1  0.65571882  0.41618822  0.93986695  1
  C  C429  1  0.91832728  0.30516069  0.78301671  1
  C  C430  1  0.55659929  0.09457992  0.95855152  1
  C  C431  1  0.57274669  0.16427412  0.92892061  1
  C  C432  1  0.59681337  0.47339446  0.81687199  1
  C  C433  1  0.96064791  0.33857900  0.84630421  1
  C  C434  1  0.69333463  0.22329719  0.78232769  1
  H  H435  1  0.94176723  0.41056673  0.96726927  1
  H  H436  1  0.62396075  0.18107578  0.91052745  1
  C  C437  1  0.98114423  0.05776956  0.99870988  1
  H  H438  1  0.59686977  0.05611207  0.97790984  1
  H  H439  1  0.96617909  0.00847738  0.87660455  1
  H  H440  1  0.69323751  0.00928418  0.84585833  1
  C  C441  1  0.69100602  0.35249045  0.97437782  1
  C  C442  1  0.63233135  0.47821102  0.98571493  1
  H  H443  1  0.68116149  0.58888300  0.12469435  1
  H  H444  1  0.98557284  0.80563661  0.16025608  1
  C  C445  1  0.64734768  0.83322511  0.15781001  1
  H  H446  1  0.60634272  0.94142662  0.16941572  1
  H  H447  1  0.61012089  0.58541441  0.20684315  1
  N  N448  1  0.70836013  0.85553005  0.16801963  1
  C  C449  1  0.72610578  0.90356668  0.11044708  1
  N  N450  1  0.51627730  0.60677025  0.18847296  1
  H  H451  1  0.87033096  0.90538747  0.16522463  1
  C  C452  1  0.88715126  0.76000356  0.11599817  1
  C  C453  1  0.69035920  0.91869913  0.02957486  1
  C  C454  1  0.83928716  0.77614672  0.04752572  1
  C  C455  1  0.78000727  0.73150507  0.04459273  1
  C  C456  1  0.93997282  0.81106784  0.11788149  1
  H  H457  1  0.63858297  0.79908226  0.21247174  1
  H  H458  1  0.91724418  0.67940414  0.21720238  1
  N  N459  1  0.95674040  0.86510135  0.06705328  1
  C  C460  1  0.57116602  0.62517422  0.22480315  1
  C  C461  1  0.76734821  0.66961655  0.09887314  1
  C  C462  1  0.53624102  0.79815529  0.07773709  1
  C  C463  1  0.70397315  0.63433621  0.08098544  1
  H  H464  1  0.51741172  0.75878825  0.12699158  1
  C  C465  1  0.60213142  0.83301763  0.08496224  1
  H  H466  1  0.81062175  0.60681329  0.20647297  1
  H  H467  1  0.77837674  0.91928925  0.12465565  1
  C  C468  1  0.81838910  0.65406472  0.16133474  1
  C  C469  1  0.62710446  0.88164440  0.01956621  1
  C  C470  1  0.87657901  0.69420567  0.16840861  1
  Cu  Cu471  1  0.56652512  0.61730794  0.02167200  1
  N  N472  1  0.65318764  0.65954415  0.03735081  1
  C  C473  1  0.91229161  0.88090571  0.01416104  1
  C  C474  1  0.60505491  0.99517632  0.20407677  1
  Cu  Cu475  1  0.51082358  0.52479668  0.11439130  1
  C  C476  1  0.88125833  0.91846093  0.22884337  1
  H  H477  1  0.80560521  0.78166473  0.21646792  1
  C  C478  1  0.86286498  0.86507707  0.29359369  1
  H  H479  1  0.69511248  0.69360853  0.28766957  1
  C  C480  1  0.81957787  0.76443762  0.41623139  1
  C  C481  1  0.97081460  0.75184015  0.40911022  1
  C  C482  1  0.71383158  0.96966145  0.39893513  1
  C  C483  1  0.65296851  0.77541900  0.36543084  1
  C  C484  1  0.84736237  0.83108054  0.45130282  1
  H  H485  1  0.70102827  0.79328315  0.38480248  1
  C  C486  1  0.82333426  0.80100981  0.27901819  1
  C  C487  1  0.64792733  0.71304064  0.31260455  1
  H  H488  1  0.63619526  0.90241430  0.48512951  1
  C  C489  1  0.52889133  0.73002076  0.30718521  1
  H  H490  1  0.53201954  0.51674561  0.27487869  1
  H  H491  1  0.95901016  0.58637247  0.39621520  1
  N  N492  1  0.95419290  0.68570023  0.42891493  1
  C  C493  1  0.59006207  0.87612557  0.45344314  1
  H  H494  1  0.68273712  0.58153598  0.43968693  1
  C  C495  1  0.90388527  0.94658527  0.40963271  1
  H  H496  1  0.59623103  0.67868474  0.42673559  1
  C  C497  1  0.87292416  0.87917528  0.38298588  1
  H  H498  1  0.68101668  0.89797827  0.30045269  1
  C  C499  1  0.59368881  0.81800528  0.39098769  1
  C  C500  1  0.97255757  0.64010649  0.36935080  1
  C  C501  1  0.58430809  0.68589542  0.28361841  1
  C  C502  1  0.52990157  0.79506570  0.35815182  1
  N  N503  1  0.79975800  0.75317297  0.33729564  1
  H  H504  1  0.74387481  0.92765256  0.42898992  1
  C  C505  1  0.91754889  0.98018847  0.25424455  1
  C  C506  1  0.67607879  0.95367921  0.32820802  1
  C  C507  1  0.65958719  0.60122794  0.49843675  1
  C  C508  1  0.61046426  0.65628676  0.49053108  1
  N  N509  1  0.53773585  0.90331784  0.49012778  1
  H  H510  1  0.80123633  0.71942271  0.45739981  1
  C  C511  1  0.92865693  0.99383349  0.34323924  1
  C  C512  1  0.91927450  0.96575282  0.49661669  1
  H  H513  1  0.96472278  0.77711296  0.47325360  1
  C  C514  1  0.76126097  0.94098677  0.69627376  1
  C  C515  1  0.96244497  0.61830233  0.63497165  1
  H  H516  1  0.93830203  0.58420427  0.58873007  1
  Cu  Cu517  1  0.53674829  0.96890125  0.58830032  1
  C  C518  1  0.71827831  0.87768458  0.68650716  1
  H  H519  1  0.90224976  0.93196223  0.62749012  1
  H  H520  1  0.82988783  0.82624374  0.58702974  1
  N  N521  1  0.51048927  0.78419266  0.63293322  1
  C  C522  1  0.88962144  0.91881543  0.56255765  1
  H  H523  1  0.51253728  0.77279303  0.50731682  1
  C  C524  1  0.65864879  0.60942806  0.65752150  1
  C  C525  1  0.65220305  0.89024788  0.65302944  1
  C  C526  1  0.58241848  0.68913208  0.56535121  1
  C  C527  1  0.60937662  0.66702421  0.64719918  1
  H  H528  1  0.70981094  0.75996434  0.71575970  1
  H  H529  1  0.53370405  0.51211422  0.71086628  1
  C  C530  1  0.82729352  0.94087286  0.72530997  1
  N  N531  1  0.62126937  0.95265217  0.63547595  1
  C  C532  1  0.53390891  0.74730845  0.57016097  1
  C  C533  1  0.73132246  0.51775823  0.59770346  1
  C  C534  1  0.58267599  0.70414726  0.72015391  1
  C  C535  1  0.68352176  0.57579377  0.58015624  1
  C  C536  1  0.53529427  0.76076466  0.70537539  1
  C  C537  1  0.85485564  0.85877235  0.53727881  1
  H  H538  1  0.61109169  0.84917529  0.64651719  1
  C  C539  1  0.74472754  0.80754627  0.71730606  1
  C  C540  1  0.68441553  0.58978417  0.74168865  1
  H  H541  1  0.82112079  0.59235702  0.68803236  1
  C  C542  1  0.73214261  0.52938518  0.74109192  1
  C  C543  1  0.92535723  0.64082427  0.71153596  1
  C  C544  1  0.85444095  0.86619475  0.74340076  1
  C  C545  1  0.94082724  0.99624346  0.73756641  1
  C  C546  1  0.81129226  0.80232658  0.74620107  1
  C  C547  1  0.85711890  0.62475025  0.72734032  1
  C  C548  1  0.60643515  0.94478718  0.88480883  1
  C  C549  1  0.92485314  0.86823648  0.75902069  1
  H  H550  1  0.76306385  0.99158074  0.97079091  1
  H  H551  1  0.56040785  0.58578658  0.85653738  1
  H  H552  1  0.76275160  0.50923192  0.79835056  1
  C  C553  1  0.58153284  0.89453564  0.94996748  1
  H  H554  1  0.91070148  0.53439522  0.99625606  1
  H  H555  1  0.62051041  0.74230121  0.96876727  1
  C  C556  1  0.96058272  0.74098760  0.92284569  1
  C  C557  1  0.92539479  0.69982234  0.85637302  1
  C  C558  1  0.74839108  0.81044031  0.92296452  1
  C  C559  1  0.85880857  0.67150449  0.86669827  1
  C  C560  1  0.95932376  0.68562639  0.77466790  1
  H  H561  1  0.82197169  0.89471426  0.88129817  1
  H  H562  1  0.93809005  0.92203736  0.97393724  1
  C  C563  1  0.61347316  0.68669412  0.80323601  1
  H  H564  1  0.70950946  0.82162022  0.87039483  1
  N  N565  1  0.82952754  0.63468499  0.80358238  1
  C  C566  1  0.80719133  0.85143735  0.92525863  1
  C  C567  1  0.58583503  0.53249265  0.87946116  1
  C  C568  1  0.55959803  0.95930256  0.81634079  1
  H  H569  1  0.95821101  0.82285239  0.78298964  1
  H  H570  1  0.59287747  0.71281728  0.86132224  1
  C  C571  1  0.66233507  0.63474356  0.81356578  1
  N  N572  1  0.96318629  0.92759837  0.75004094  1
  H  H573  1  0.82634183  0.68002017  0.92326100  1
  H  H574  1  0.67813382  0.62644514  0.88101056  1
  N  N575  1  0.59751319  0.53541985  0.95792216  1
  C  C576  1  0.67297748  0.97485491  0.89293589  1
  C  C577  1  0.71230270  0.96779033  0.96529707  1
  H  H578  1  0.98224777  0.61058434  0.90075599  1
  H  H579  1  0.83464437  0.74803512  0.76171225  1
  C  C580  1  0.51736861  0.86111370  0.93825976  1
  H  H581  1  0.93223488  0.76033959  0.98294613  1
  C  C582  1  0.73138745  0.75734221  0.98322278  1
  C  C583  1  0.96559527  0.53083525  0.99979731  1
  N  N584  1  0.50311408  0.92699213  0.79821191  1
  C  C585  1  0.85235654  0.83907592  0.99358433  1
  C  C586  1  0.66698961  0.71818733  0.99708754  1
  H  H587  1  0.51459333  0.79386651  0.76332176  1
