# generated using pymatgen
data_Zn2H9C23O10
_symmetry_space_group_name_H-M   'P 1'
_cell_length_a   14.21994286
_cell_length_b   31.99583324
_cell_length_c   11.42968071
_cell_angle_alpha   90.00000000
_cell_angle_beta   90.00000000
_cell_angle_gamma   90.00000000
_symmetry_Int_Tables_number   1
_chemical_formula_structural   Zn2H9C23O10
_chemical_formula_sum   'Zn16 H72 C184 O80'
_cell_volume   5200.26379063
_cell_formula_units_Z   8
loop_
 _symmetry_equiv_pos_site_id
 _symmetry_equiv_pos_as_xyz
  1  'x, y, z'
loop_
 _atom_site_type_symbol
 _atom_site_label
 _atom_site_symmetry_multiplicity
 _atom_site_fract_x
 _atom_site_fract_y
 _atom_site_fract_z
 _atom_site_occupancy
  H  H0  1  0.35476965  0.03889067  0.48799303  1
  C  C1  1  0.46911474  0.22353292  0.37356064  1
  C  C2  1  0.38818674  0.01987979  0.30653647  1
  C  C3  1  0.46456336  0.10605441  0.04111913  1
  C  C4  1  0.40018592  0.01961879  0.42673421  1
  O  O5  1  0.37707478  0.15953893  0.15090435  1
  H  H6  1  0.45321444  0.19081180  0.34622644  1
  O  O7  1  0.17559459  0.22247665  0.12943924  1
  C  C8  1  0.30125542  0.04224569  0.25303926  1
  Zn  Zn9  1  0.11039372  0.07887414  0.32568456  1
  O  O10  1  0.25626488  0.06780224  0.31987995  1
  O  O11  1  0.04100487  0.13248647  0.23846962  1
  O  O12  1  0.27567611  0.03241344  0.15828525  1
  C  C13  1  0.02523175  0.12291501  0.13062671  1
  C  C14  1  0.39482075  0.24929820  0.41123519  1
  O  O15  1  0.08462849  0.01930012  0.25387391  1
  H  H16  1  0.32184631  0.23673993  0.41756073  1
  C  C17  1  0.22478893  0.24978712  0.17294232  1
  C  C18  1  0.38000206  0.13618709  0.07231631  1
  C  C19  1  0.36091098  0.23839900  0.03549326  1
  H  H20  1  0.33182819  0.20925825  0.00702386  1
  H  H21  1  0.04461614  0.03669004  0.01563209  1
  Zn  Zn22  1  0.18608877  0.16754805  0.01758333  1
  O  O23  1  0.09068831  0.11571198  0.06258186  1
  C  C24  1  0.45500253  0.24891058  0.00951541  1
  O  O25  1  0.30814469  0.13150863  0.00694094  1
  C  C26  1  0.02448910  0.09576158  0.57644114  1
  C  C27  1  0.44285508  0.06707645  0.99940237  1
  H  H28  1  0.14084422  0.03893443  0.65849594  1
  C  C29  1  0.02485754  0.08036245  0.70386546  1
  C  C30  1  0.09001367  0.04837466  0.72549289  1
  C  C31  1  0.33292139  0.15167466  0.59262645  1
  C  C32  1  0.09230335  0.03029844  0.83713550  1
  O  O33  1  0.40037476  0.13107048  0.59251318  1
  C  C34  1  0.03766079  0.04557820  0.92626240  1
  C  C35  1  0.06058684  0.19832407  0.84484883  1
  O  O36  1  0.05387772  0.17494868  0.75827456  1
  O  O37  1  0.14162635  0.20689783  0.88548906  1
  H  H38  1  0.43823348  0.18051762  0.84431481  1
  O  O39  1  0.42795159  0.00863970  0.66145207  1
  H  H40  1  0.36995399  0.05645775  0.99387683  1
  O  O41  1  0.07883728  0.07665601  0.51018170  1
  O  O42  1  0.26395485  0.17101391  0.59063904  1
  O  O43  1  0.08541659  0.36272242  0.35683903  1
  Zn  Zn44  1  0.07389961  0.29954074  0.30021635  1
  C  C45  1  0.41642592  0.28912688  0.45863643  1
  O  O46  1  0.07205106  0.45365908  0.13753673  1
  C  C47  1  0.49430966  0.28629410  0.05007294  1
  C  C48  1  0.44069575  0.31175986  0.12604461  1
  C  C49  1  0.15536467  0.44448244  0.15886183  1
  H  H50  1  0.30774459  0.32260406  0.21715527  1
  H  H51  1  0.25877055  0.32813666  0.35593109  1
  C  C52  1  0.21821101  0.47320537  0.23353700  1
  C  C53  1  0.34897603  0.30116973  0.15820141  1
  O  O54  1  0.19265987  0.41271811  0.12323933  1
  C  C55  1  0.44840113  0.46156226  0.39463126  1
  O  O56  1  0.19771075  0.26970872  0.26372389  1
  H  H57  1  0.31422126  0.42208431  0.26059894  1
  C  C58  1  0.44158405  0.42428254  0.46423369  1
  C  C59  1  0.26210257  0.33359473  0.45101217  1
  O  O60  1  0.42161653  0.38092557  0.18671426  1
  C  C61  1  0.31722244  0.26258070  0.12131989  1
  C  C62  1  0.29884986  0.45444453  0.28279065  1
  C  C63  1  0.35678628  0.48094327  0.34798151  1
  H  H64  1  0.37511067  0.40860389  0.47981601  1
  C  C65  1  0.11031031  0.37823808  0.44837530  1
  C  C66  1  0.47793232  0.35352977  0.16091582  1
  Zn  Zn67  1  0.32183656  0.39963841  0.03982986  1
  O  O68  1  0.00532928  0.27969729  0.46258939  1
  C  C69  1  0.48927183  0.45909648  0.02530131  1
  O  O70  1  0.06251864  0.40310958  0.50773250  1
  C  C71  1  0.35669183  0.33165904  0.62796419  1
  H  H72  1  0.40776222  0.31657134  0.69105396  1
  O  O73  1  0.26123464  0.39596086  0.86056608  1
  C  C74  1  0.21677514  0.37756691  0.61795488  1
  O  O75  1  0.37260275  0.35262098  0.86653108  1
  C  C76  1  0.29560939  0.36110358  0.67692589  1
  C  C77  1  0.31328800  0.37094977  0.80621209  1
  H  H78  1  0.16880461  0.40009145  0.66533408  1
  C  C79  1  0.20100402  0.36127480  0.50613851  1
  O  O80  1  0.45052957  0.42775635  0.98263490  1
  H  H81  1  0.30428280  0.47996385  0.95277950  1
  C  C82  1  0.00025308  0.49011031  0.71268827  1
  H  H83  1  0.06024154  0.25784250  0.99238257  1
  C  C84  1  0.33851851  0.31748972  0.51299769  1
  H  H85  1  0.05107685  0.49702815  0.64293618  1
  O  O86  1  0.27887692  0.60546277  0.40302306  1
  O  O87  1  0.15719337  0.59835917  0.28720442  1
  Zn  Zn88  1  0.01928564  0.62508627  0.29658525  1
  H  H89  1  0.37401372  0.54220603  0.43140587  1
  C  C90  1  0.25369253  0.53838000  0.31812241  1
  C  C91  1  0.33172556  0.52254869  0.37305341  1
  C  C92  1  0.07743805  0.70784427  0.21429149  1
  H  H93  1  0.12756596  0.52681441  0.21078371  1
  C  C94  1  0.23309560  0.58499132  0.33399184  1
  O  O95  1  0.15491359  0.69870658  0.18097378  1
  H  H96  1  0.06971972  0.63674376  0.02863450  1
  C  C97  1  0.19151292  0.51342040  0.25218848  1
  O  O98  1  0.01212317  0.68107617  0.22770989  1
  H  H99  1  0.07224909  0.67833721  0.45252621  1
  H  H100  1  0.24389489  0.62374483  0.02439020  1
  C  C101  1  0.22580765  0.56319933  0.92880800  1
  H  H102  1  0.21922575  0.74284697  0.78209305  1
  C  C103  1  0.16077541  0.53491741  0.87980302  1
  C  C104  1  0.44721320  0.50183594  0.99422537  1
  Zn  Zn105  1  0.48348398  0.69498616  0.88627359  1
  C  C106  1  0.06101299  0.54214951  0.87849676  1
  H  H107  1  0.19502699  0.50470806  0.85204915  1
  C  C108  1  0.24978581  0.52969552  0.61389086  1
  C  C109  1  0.13725284  0.73292658  0.54101073  1
  O  O110  1  0.35593861  0.73216744  0.91641569  1
  C  C111  1  0.35354319  0.50620253  0.96361765  1
  C  C112  1  0.32578771  0.54834329  0.94651202  1
  O  O113  1  0.32589653  0.54061604  0.63193679  1
  C  C114  1  0.38659716  0.58399307  0.95710654  1
  O  O115  1  0.48486981  0.70409997  0.70102068  1
  C  C116  1  0.02593622  0.57997706  0.93435786  1
  O  O117  1  0.17263161  0.52037783  0.58535903  1
  H  H118  1  0.35737418  0.61661431  0.94506815  1
  C  C119  1  0.09468915  0.60654290  0.99048912  1
  C  C120  1  0.06261434  0.70745545  0.50489177  1
  H  H121  1  0.21281070  0.72640458  0.52648776  1
  C  C122  1  0.47709355  0.57579315  0.98064331  1
  C  C123  1  0.19197504  0.60121562  0.98561643  1
  O  O124  1  0.18419238  0.88606032  0.35671632  1
  C  C125  1  0.09928166  0.82433304  0.28234082  1
  C  C126  1  0.05393738  0.75350834  0.24415668  1
  Zn  Zn127  1  0.36894682  0.88485020  0.35741661  1
  C  C128  1  0.12372769  0.78416551  0.25332656  1
  H  H129  1  0.10789808  0.95116715  0.13398431  1
  H  H130  1  0.43603734  0.99612912  0.14189203  1
  C  C131  1  0.00403585  0.83583414  0.29837044  1
  O  O132  1  0.46999205  0.81017196  0.42154945  1
  C  C133  1  0.18446458  0.85491895  0.29839200  1
  O  O134  1  0.26732903  0.84420380  0.25678173  1
  H  H135  1  0.19867714  0.77327680  0.24089447  1
  O  O136  1  0.39993150  0.87972793  0.03396059  1
  C  C137  1  0.03135601  0.94285180  0.12802854  1
  C  C138  1  0.43335288  0.90283607  0.10870525  1
  Zn  Zn139  1  0.26852626  0.84338749  0.06832480  1
  O  O140  1  0.37969998  0.91646984  0.18740203  1
  O  O141  1  0.16175016  0.88482024  0.03988858  1
  C  C142  1  0.07115009  0.87840525  0.02745167  1
  O  O143  1  0.35995114  0.79087127  0.01381120  1
  C  C144  1  0.47564103  0.99439623  0.46498183  1
  C  C145  1  0.44631538  0.99654779  0.23474143  1
  C  C146  1  0.35508850  0.88859816  0.62997948  1
  C  C147  1  0.33804200  0.83394902  0.78227313  1
  C  C148  1  0.19803865  0.79348248  0.65880583  1
  C  C149  1  0.23870060  0.77329041  0.75673157  1
  C  C150  1  0.30376283  0.84994466  0.67671309  1
  O  O151  1  0.42407511  0.98336517  0.92430614  1
  C  C152  1  0.31094007  0.79409651  0.81364203  1
  C  C153  1  0.23453603  0.83124161  0.60877556  1
  O  O154  1  0.40769090  0.90778310  0.70448700  1
  H  H155  1  0.40034573  0.84590402  0.82084598  1
  O  O156  1  0.34002616  0.90384840  0.53300917  1
  H  H157  1  0.01716466  0.80987589  0.67727022  1
  Zn  Zn158  1  0.34748084  0.96415935  0.77119612  1
  H  H159  1  0.20299571  0.84654423  0.52992911  1
  C  C160  1  0.11630697  0.76994125  0.60117384  1
  C  C161  1  0.02244532  0.78403025  0.61704178  1
  C  C162  1  0.34805731  0.77092713  0.92352132  1
  O  O163  1  0.21083558  0.98380452  0.75098651  1
  C  C164  1  0.16181476  0.99506174  0.84187975  1
  O  O165  1  0.18023060  0.97809724  0.93319883  1
  C  C166  1  0.48947496  0.99183884  0.59523171  1
  O  O167  1  0.03890526  0.84956629  0.97045806  1
  C  C168  1  0.56021437  0.23934890  0.36374866  1
  C  C169  1  0.62430224  0.20709529  0.30136085  1
  C  C170  1  0.75921747  0.12992804  0.14393424  1
  H  H171  1  0.56786671  0.15118308  0.08695709  1
  C  C172  1  0.85476700  0.13577297  0.16945562  1
  O  O173  1  0.59667238  0.17069518  0.28886618  1
  C  C174  1  0.92512368  0.11863735  0.09468846  1
  H  H175  1  0.88295605  0.15384120  0.24617773  1
  H  H176  1  0.70431597  0.14705765  0.19498923  1
  H  H177  1  0.74597888  0.24104715  0.45493236  1
  O  O178  1  0.70082544  0.21818511  0.25683004  1
  O  O179  1  0.90512723  0.22712520  0.49084280  1
  O  O180  1  0.94383387  0.02514487  0.31574183  1
  C  C181  1  0.63126895  0.09116385  0.03271187  1
  C  C182  1  0.55431395  0.11938683  0.05366642  1
  C  C183  1  0.73295345  0.10439396  0.04664955  1
  H  H184  1  0.63754556  0.23799494  0.08165048  1
  C  C185  1  0.99989092  0.00886624  0.25216027  1
  H  H186  1  0.91423097  0.12061994  0.77225658  1
  C  C187  1  0.68166618  0.18208576  0.82378054  1
  C  C188  1  0.97114661  0.07776455  0.90441020  1
  H  H189  1  0.79067706  0.06997021  0.89279579  1
  C  C190  1  0.80554993  0.09031192  0.96978698  1
  H  H191  1  0.56750069  0.15222064  0.72910608  1
  O  O192  1  0.72841259  0.14992553  0.65053147  1
  C  C193  1  0.80154560  0.21945448  0.94569432  1
  O  O194  1  0.85295495  0.17755547  0.75782450  1
  C  C195  1  0.62479608  0.22464202  0.99667212  1
  C  C196  1  0.90036292  0.09806788  0.98725528  1
  C  C197  1  0.74893198  0.17067987  0.73432956  1
  C  C198  1  0.58518187  0.17306072  0.80037618  1
  H  H199  1  0.66971375  0.02818604  0.97038768  1
  C  C200  1  0.88239735  0.19795907  0.88462651  1
  H  H201  1  0.88189678  0.16127111  0.90075751  1
  C  C202  1  0.53210710  0.22155058  0.95335775  1
  Zn  Zn203  1  0.95592634  0.18547135  0.61759180  1
  C  C204  1  0.51978345  0.04231494  0.96502302  1
  C  C205  1  0.96298368  0.09456837  0.78955956  1
  C  C206  1  0.70174120  0.20837833  0.92533729  1
  C  C207  1  0.97722119  0.21643549  0.90676948  1
  C  C208  1  0.51173743  0.19199343  0.85986546  1
  C  C209  1  0.61366960  0.05147834  0.98789377  1
  C  C210  1  0.98806667  0.24773870  0.98457157  1
  O  O211  1  0.97417669  0.12471737  0.54082090  1
  H  H212  1  0.75907497  0.49495030  0.28825119  1
  C  C213  1  0.85834823  0.33440417  0.40768365  1
  H  H214  1  0.92736114  0.35092677  0.40689715  1
  C  C215  1  0.78192126  0.35578069  0.36580428  1
  O  O216  1  0.56200267  0.36105247  0.14796828  1
  C  C217  1  0.68880644  0.33999984  0.36051266  1
  C  C218  1  0.57843625  0.28152757  0.39662053  1
  H  H219  1  0.53634186  0.33556536  0.48692641  1
  O  O220  1  0.87643110  0.41885727  0.34749309  1
  Zn  Zn221  1  0.94111246  0.45400240  0.20391012  1
  C  C222  1  0.79541598  0.39984989  0.32788311  1
  C  C223  1  0.75483698  0.27419463  0.43476879  1
  C  C224  1  0.53828819  0.48214607  0.38677165  1
  H  H225  1  0.62782841  0.35949432  0.33815829  1
  O  O226  1  0.82015738  0.45388612  0.09136107  1
  O  O227  1  0.72780288  0.41748265  0.28559999  1
  C  C228  1  0.67942657  0.29831348  0.39416818  1
  Zn  Zn229  1  0.66306629  0.41053396  0.10849992  1
  C  C230  1  0.91109896  0.30383182  0.12597848  1
  C  C231  1  0.92497118  0.26445495  0.46594267  1
  C  C232  1  0.84346936  0.29249084  0.43508749  1
  O  O233  1  0.83337112  0.31589639  0.15806634  1
  C  C234  1  0.50807800  0.30442641  0.45602242  1
  C  C235  1  0.61281536  0.46589875  0.45064024  1
  O  O236  1  0.98894595  0.31921013  0.15596881  1
  H  H237  1  0.75952411  0.26903109  0.07053794  1
  O  O238  1  0.56825580  0.45865721  0.07239789  1
  C  C239  1  0.91322867  0.26654716  0.04368930  1
  H  H240  1  0.56338115  0.29917052  0.02319529  1
  C  C241  1  0.69385157  0.49692659  0.45915194  1
  C  C242  1  0.82176395  0.25173049  0.02708345  1
  C  C243  1  0.87453430  0.43969675  0.78700709  1
  O  O244  1  0.76210216  0.42950802  0.59315735  1
  O  O245  1  0.67626402  0.37715817  0.64053611  1
  C  C246  1  0.81971858  0.43878439  0.98875133  1
  C  C247  1  0.68797361  0.40900383  0.58447263  1
  C  C248  1  0.88400388  0.45778576  0.89771801  1
  H  H249  1  0.82541115  0.41465990  0.76985582  1
  C  C250  1  0.93472906  0.45779943  0.70243784  1
  Zn  Zn251  1  0.91643816  0.42399391  0.54083370  1
  O  O252  1  0.76621860  0.40963650  0.96893886  1
  C  C253  1  0.94203367  0.49260913  0.91923783  1
  H  H254  1  0.51575645  0.37678255  0.56935081  1
  C  C255  1  0.60732144  0.42766656  0.51321532  1
  C  C256  1  0.52077498  0.40566483  0.51865662  1
  H  H257  1  0.63027991  0.49982970  0.63494304  1
  H  H258  1  0.90595337  0.73708498  0.27597534  1
  C  C259  1  0.70350495  0.63292488  0.27158982  1
  O  O260  1  0.75322398  0.64650168  0.18572321  1
  O  O261  1  0.98695545  0.56357990  0.37142019  1
  C  C262  1  0.83499410  0.53223019  0.42187254  1
  C  C263  1  0.63983825  0.73978962  0.40921068  1
  C  C264  1  0.67282070  0.70765765  0.33044786  1
  C  C265  1  0.65712626  0.66633694  0.35193993  1
  Zn  Zn266  1  0.76201425  0.63128041  0.00807317  1
  O  O267  1  0.68693095  0.59686691  0.28370406  1
  H  H268  1  0.94591579  0.50494332  0.00798929  1
  C  C269  1  0.92079091  0.54134644  0.34011809  1
  O  O270  1  0.92657315  0.52178113  0.24937996  1
  H  H271  1  0.58327093  0.52752302  0.02466907  1
  H  H272  1  0.71755080  0.71572035  0.26015461  1
  H  H273  1  0.81469801  0.74922839  0.39124796  1
  C  C274  1  0.50990067  0.53562294  0.00211228  1
  H  H275  1  0.86135914  0.63545914  0.42848088  1
  H  H276  1  0.54488608  0.51217029  0.34141665  1
  C  C277  1  0.76251629  0.50898847  0.37704529  1
  O  O278  1  0.50671662  0.64622157  0.01143652  1
  O  O279  1  0.92724081  0.64478294  0.44498098  1
  O  O280  1  0.91497229  0.62923921  0.00125619  1
  C  C281  1  0.61301324  0.65215571  0.45392892  1
  C  C282  1  0.89698652  0.68712616  0.49075304  1
  H  H283  1  0.61008460  0.61821913  0.46612584  1
  Zn  Zn284  1  0.85478302  0.57104303  0.70385238  1
  C  C285  1  0.57579864  0.68203943  0.52845839  1
  O  O286  1  0.81447311  0.69011922  0.50449396  1
  C  C287  1  0.82289624  0.73810185  0.71645770  1
  C  C288  1  0.58850522  0.72473223  0.50558539  1
  O  O289  1  0.62210323  0.71917789  0.90042310  1
  C  C290  1  0.83213820  0.54564724  0.53741412  1
  O  O291  1  0.72810434  0.67502502  0.83581006  1
  H  H292  1  0.86123332  0.70861864  0.72822348  1
  C  C293  1  0.76205963  0.53553710  0.61780380  1
  C  C294  1  0.69093951  0.71034708  0.83326595  1
  C  C295  1  0.93202411  0.59496856  0.94690429  1
  O  O296  1  0.86070862  0.57755515  0.90077967  1
  C  C297  1  0.73147806  0.74437088  0.75652025  1
  C  C298  1  0.69018960  0.51104675  0.57891759  1
  C  C299  1  0.96633278  0.71789932  0.53122898  1
  C  C300  1  0.99821244  0.50861669  0.82948778  1
  C  C301  1  0.52356523  0.67335571  0.64099926  1
  H  H302  1  0.57024290  0.74733794  0.56650221  1
  O  O303  1  0.51488131  0.63834738  0.68036507  1
  O  O304  1  0.62894986  0.60605758  0.99601928  1
  C  C305  1  0.54165458  0.61145248  0.99027595  1
  C  C306  1  0.77726531  0.77711020  0.36980226  1
  C  C307  1  0.93628754  0.80327316  0.29657385  1
  C  C308  1  0.73165367  0.91807151  0.12653892  1
  C  C309  1  0.68700252  0.85484538  0.33639989  1
  H  H310  1  0.65529317  0.88444344  0.31931363  1
  O  O311  1  0.50989939  0.87313948  0.37120136  1
  C  C312  1  0.90038522  0.89698141  0.07934699  1
  H  H313  1  0.82238427  0.98730483  0.22059653  1
  C  C314  1  0.57609535  0.94363607  0.18973184  1
  C  C315  1  0.83064750  0.80948464  0.32199792  1
  C  C316  1  0.83519303  0.92568604  0.12901173  1
  C  C317  1  0.51937592  0.97020912  0.27587525  1
  C  C318  1  0.78163163  0.84785933  0.30937041  1
  H  H319  1  0.70419975  0.96762975  0.25435010  1
  C  C320  1  0.67301157  0.94556652  0.19500929  1
  H  H321  1  0.87622166  0.86866720  0.03570074  1
  H  H322  1  0.58910632  0.95044817  0.43023518  1
  C  C323  1  0.53726510  0.91033741  0.11757800  1
  C  C324  1  0.69234825  0.88450256  0.05801571  1
  C  C325  1  0.53462608  0.97045733  0.39645824  1
  C  C326  1  0.59344335  0.88098340  0.06091168  1
  C  C327  1  0.87133980  0.96296366  0.18082445  1
  H  H328  1  0.82478792  0.87561621  0.28161936  1
  C  C329  1  0.63370251  0.82248774  0.37966808  1
  C  C330  1  0.68005314  0.78300433  0.39123051  1
  C  C331  1  0.53039608  0.83458606  0.39398517  1
  C  C332  1  0.96282894  0.76153912  0.26829842  1
  C  C333  1  0.96545224  0.96922140  0.18182386  1
  C  C334  1  0.99500732  0.90628761  0.07759987  1
  H  H335  1  0.98352527  0.86960497  0.30818937  1
  H  H336  1  0.56067388  0.85453708  0.02200054  1
  H  H337  1  0.73816132  0.86167053  0.01181101  1
  C  C338  1  0.73041273  0.81799522  0.70279617  1
  O  O339  1  0.55989302  0.97367151  0.63751685  1
  Zn  Zn340  1  0.55444042  0.92519823  0.76967303  1
  O  O341  1  0.60508090  0.86255389  0.79299905  1
  H  H342  1  0.85588202  0.83659728  0.60677679  1
  C  C343  1  0.81467714  0.81089941  0.64876378  1
  O  O344  1  0.57255901  0.97511362  0.88995076  1
  O  O345  1  0.70340397  0.88962917  0.67406068  1
  C  C346  1  0.85706125  0.77113446  0.64423119  1
  C  C347  1  0.67697307  0.85832772  0.72888458  1
  C  C348  1  0.68735337  0.78368594  0.75493608  1
  H  H349  1  0.61966966  0.78777468  0.79302265  1
  C  C350  1  0.94808142  0.75806621  0.58642092  1
  C  C351  1  0.50611177  0.99900770  0.91705883  1
