# generated using pymatgen
data_Zn2H10C24O13
_symmetry_space_group_name_H-M   'P 1'
_cell_length_a   16.29932374
_cell_length_b   17.76224870
_cell_length_c   22.80084922
_cell_angle_alpha   90.00000000
_cell_angle_beta   90.00000000
_cell_angle_gamma   90.00000000
_symmetry_Int_Tables_number   1
_chemical_formula_structural   Zn2H10C24O13
_chemical_formula_sum   'Zn16 H80 C192 O104'
_cell_volume   6601.13409676
_cell_formula_units_Z   8
loop_
 _symmetry_equiv_pos_site_id
 _symmetry_equiv_pos_as_xyz
  1  'x, y, z'
loop_
 _atom_site_type_symbol
 _atom_site_label
 _atom_site_symmetry_multiplicity
 _atom_site_fract_x
 _atom_site_fract_y
 _atom_site_fract_z
 _atom_site_occupancy
  C  C0  1  0.32338099  0.25831944  0.06877946  1
  C  C1  1  0.33730658  0.13906310  0.11824539  1
  H  H2  1  0.43942714  0.29468514  0.02004335  1
  C  C3  1  0.41686185  0.12740197  0.09918819  1
  C  C4  1  0.40708187  0.25170694  0.04803344  1
  C  C5  1  0.44453609  0.18457226  0.06117532  1
  H  H6  1  0.22962257  0.20693799  0.12455314  1
  O  O7  1  0.13472074  0.28349089  0.11988782  1
  C  C8  1  0.29935661  0.08116105  0.15651408  1
  O  O9  1  0.22386331  0.08847865  0.16195829  1
  Zn  Zn10  1  0.13562479  0.05164310  0.22940178  1
  C  C11  1  0.29011986  0.20177268  0.10536255  1
  O  O12  1  0.34391079  0.02490526  0.16848728  1
  H  H13  1  0.44931414  0.07376785  0.10650609  1
  C  C14  1  0.13318990  0.33133607  0.08291468  1
  C  C15  1  0.28325564  0.32229549  0.04499861  1
  H  H16  1  0.32054995  0.35902586  0.01615673  1
  C  C17  1  0.20454141  0.35362356  0.04746376  1
  C  C18  1  0.18942653  0.41482988  0.00432359  1
  O  O19  1  0.01360445  0.00109652  0.09389242  1
  O  O20  1  0.05917778  0.37596111  0.07132878  1
  H  H21  1  0.03507507  0.36798723  0.11140496  1
  Zn  Zn22  1  0.05231270  0.03379142  0.00742045  1
  C  C23  1  0.03227434  0.31108470  0.24195615  1
  H  H24  1  0.07161116  0.26313487  0.22476946  1
  O  O25  1  0.47505611  0.10396713  0.24534527  1
  C  C26  1  0.27805305  0.11340995  0.45331770  1
  H  H27  1  0.19686013  0.20139133  0.43142495  1
  C  C28  1  0.22795338  0.13033173  0.35608934  1
  O  O29  1  0.36136180  0.24679454  0.42857940  1
  C  C30  1  0.35316435  0.26043812  0.47932359  1
  C  C31  1  0.22962778  0.15353735  0.41401500  1
  O  O32  1  0.47641692  0.44978084  0.41521738  1
  C  C33  1  0.32861411  0.05234314  0.43605943  1
  C  C34  1  0.32110299  0.02716643  0.37750910  1
  O  O35  1  0.42924078  0.19367596  0.29963120  1
  H  H36  1  0.40627398  0.35260081  0.45891720  1
  O  O37  1  0.13852434  0.23622202  0.33875600  1
  C  C38  1  0.17274391  0.17875731  0.31995786  1
  H  H39  1  0.27342474  0.04963258  0.29193053  1
  H  H40  1  0.07194343  0.28632487  0.31760414  1
  C  C41  1  0.27369741  0.06773206  0.33700629  1
  O  O42  1  0.16100228  0.15637065  0.26747491  1
  C  C43  1  0.47733426  0.14475237  0.29081764  1
  H  H44  1  0.36978621  0.02642265  0.47013734  1
  H  H45  1  0.49335302  0.19931309  0.40369553  1
  O  O46  1  0.02623767  0.32957507  0.29876094  1
  C  C47  1  0.12596160  0.43981489  0.58693369  1
  C  C48  1  0.27745351  0.11877479  0.62147839  1
  C  C49  1  0.29049919  0.19785099  0.62870486  1
  H  H50  1  0.24955574  0.43180731  0.62562082  1
  O  O51  1  0.36053200  0.41546762  0.59616949  1
  C  C52  1  0.28389875  0.08815524  0.56599676  1
  C  C53  1  0.27218611  0.24387583  0.68469007  1
  C  C54  1  0.25119015  0.06454586  0.66886112  1
  O  O55  1  0.22909841  0.00073182  0.65074682  1
  C  C56  1  0.40983832  0.46417437  0.58761290  1
  H  H57  1  0.15881677  0.18875055  0.70852536  1
  C  C58  1  0.31814825  0.21052149  0.52465825  1
  O  O59  1  0.08213101  0.35168938  0.66636271  1
  C  C60  1  0.33066332  0.30137568  0.69829295  1
  O  O61  1  0.45679437  0.02428506  0.70935041  1
  O  O62  1  0.24867410  0.08405895  0.72132077  1
  H  H63  1  0.38452410  0.31110220  0.67166435  1
  Zn  Zn64  1  0.04668405  0.43608203  0.73258817  1
  C  C65  1  0.20187479  0.23201998  0.71874407  1
  H  H66  1  0.33008853  0.30253804  0.58859799  1
  C  C67  1  0.31393357  0.24193902  0.58146683  1
  C  C68  1  0.08168392  0.36917257  0.61190569  1
  C  C69  1  0.28884155  0.13489959  0.51621241  1
  H  H70  1  0.26560400  0.03129113  0.56031281  1
  O  O71  1  0.05224170  0.17438369  0.65036070  1
  C  C72  1  0.20467498  0.46478715  0.59668372  1
  O  O73  1  0.43103921  0.42455992  0.74207398  1
  H  H74  1  0.06872165  0.22737427  0.64655861  1
  C  C75  1  0.31143548  0.35004353  0.74411147  1
  O  O76  1  0.48215422  0.45195750  0.57138225  1
  H  H77  1  0.45490061  0.23335266  0.72684467  1
  O  O78  1  0.03526282  0.33764936  0.57843163  1
  H  H79  1  0.01404748  0.46835991  0.54179488  1
  C  C80  1  0.07705333  0.48406729  0.55087712  1
  O  O81  1  0.38946072  0.33659859  0.50003113  1
  C  C82  1  0.04078034  0.10832071  0.93135243  1
  O  O83  1  0.05501839  0.04329244  0.75309392  1
  C  C84  1  0.09505329  0.28472019  0.78834347  1
  C  C85  1  0.43114806  0.20227470  0.83987067  1
  H  H86  1  0.37054286  0.11826621  0.91927998  1
  O  O87  1  0.06483814  0.34870764  0.79813318  1
  Zn  Zn88  1  0.33162594  0.06364424  0.79983746  1
  O  O89  1  0.34858919  0.45279341  0.81185506  1
  O  O90  1  0.42421822  0.19258641  0.89219893  1
  H  H91  1  0.22549123  0.38746597  0.80989287  1
  H  H92  1  0.10745365  0.06739721  0.86173854  1
  C  C93  1  0.04792882  0.09141226  0.87283367  1
  C  C94  1  0.11518058  0.11871386  0.96525815  1
  O  O95  1  0.38977755  0.16299519  0.80205171  1
  H  H96  1  0.28148934  0.09660312  0.93640749  1
  O  O97  1  0.32920075  0.07831533  0.91643060  1
  O  O98  1  0.06547364  0.22608735  0.80032064  1
  C  C99  1  0.23835615  0.34613917  0.77421367  1
  O  O100  1  0.18669104  0.11818334  0.96639157  1
  C  C101  1  0.49973647  0.24817590  0.81376435  1
  C  C102  1  0.36570256  0.41473523  0.76575174  1
  O  O103  1  0.23697290  0.43834411  0.96938985  1
  C  C104  1  0.18289443  0.28750899  0.75824001  1
  H  H105  1  0.12815800  0.44291355  0.99541395  1
  O  O106  1  0.39825685  0.62122158  0.08841086  1
  H  H107  1  0.44889845  0.82234935  0.16665458  1
  C  C108  1  0.00054531  0.85842490  0.11835024  1
  H  H109  1  0.05490152  0.88703632  0.09791429  1
  O  O110  1  0.22937713  0.83102374  0.22283261  1
  C  C111  1  0.08085736  0.74006759  0.12071918  1
  C  C112  1  0.31633988  0.91458242  0.03756014  1
  Zn  Zn113  1  0.42997692  0.99633110  0.23932329  1
  Zn  Zn114  1  0.26091475  0.79455120  0.13115627  1
  H  H115  1  0.40296520  0.78273299  0.01780562  1
  O  O116  1  0.14251389  0.77451309  0.09973436  1
  O  O117  1  0.28495988  0.97704790  0.03788659  1
  O  O118  1  0.34746324  0.70941938  0.14446680  1
  O  O119  1  0.07931692  0.67292980  0.13164639  1
  O  O120  1  0.33308197  0.87835791  0.08398533  1
  C  C121  1  0.40513576  0.68273721  0.11272462  1
  C  C122  1  0.16713348  0.87598640  0.22530171  1
  O  O123  1  0.17941798  0.94013795  0.20389608  1
  C  C124  1  0.48141550  0.73127808  0.10687897  1
  C  C125  1  0.49190443  0.79964304  0.13421232  1
  C  C126  1  0.00155062  0.78168269  0.13592242  1
  C  C127  1  0.36358154  0.95685464  0.35819987  1
  O  O128  1  0.05492053  0.63105390  0.28975008  1
  O  O129  1  0.35965973  0.93582326  0.30577157  1
  C  C130  1  0.03067606  0.58137147  0.48176563  1
  O  O131  1  0.04056075  0.64410128  0.46209989  1
  O  O132  1  0.40270896  0.91827265  0.39559437  1
  O  O133  1  0.02955988  0.99497780  0.25442101  1
  O  O134  1  0.48143288  0.75089944  0.41864784  1
  C  C135  1  0.08408814  0.77988771  0.27297777  1
  H  H136  1  0.47641527  0.59580407  0.42225609  1
  C  C137  1  0.01590855  0.90621202  0.25807191  1
  C  C138  1  0.00663449  0.75702421  0.29317632  1
  C  C139  1  0.09036983  0.85439957  0.25477982  1
  H  H140  1  0.13756614  0.74030410  0.26996259  1
  H  H141  1  0.46029751  0.81069933  0.55113951  1
  O  O142  1  0.36640209  0.83721221  0.64357727  1
  C  C143  1  0.10030231  0.55100567  0.52406517  1
  Zn  Zn144  1  0.22891658  0.89220206  0.69005747  1
  O  O145  1  0.10883610  0.85757981  0.73451728  1
  H  H146  1  0.19713828  0.63408965  0.52053649  1
  C  C147  1  0.17546608  0.58220846  0.53908490  1
  H  H148  1  0.04171713  0.53394171  0.64665979  1
  C  C149  1  0.38635312  0.54691912  0.59628359  1
  C  C150  1  0.10994771  0.69974145  0.71121809  1
  C  C151  1  0.32172875  0.78074983  0.63329579  1
  C  C152  1  0.28861216  0.65248023  0.61065213  1
  C  C153  1  0.30571610  0.57607226  0.59547076  1
  C  C154  1  0.45026796  0.59753382  0.60322329  1
  C  C155  1  0.04649238  0.82965473  0.70955514  1
  O  O156  1  0.24593307  0.79191749  0.63833299  1
  C  C157  1  0.10786404  0.62274759  0.69566892  1
  C  C158  1  0.43374498  0.67329036  0.61400453  1
  C  C159  1  0.04417636  0.74444229  0.69390388  1
  C  C160  1  0.22698774  0.53855110  0.57752862  1
  C  C161  1  0.35190328  0.70242969  0.61968336  1
  C  C162  1  0.04383047  0.59358980  0.66233879  1
  H  H163  1  0.22303656  0.66791891  0.61766631  1
  C  C164  1  0.16982329  0.57263971  0.72383312  1
  H  H165  1  0.15649190  0.72177409  0.74190813  1
  O  O166  1  0.16500029  0.50390267  0.71963761  1
  O  O167  1  0.23141635  0.60596307  0.74726968  1
  O  O168  1  0.25420629  0.96760263  0.81806682  1
  C  C169  1  0.47839887  0.64032386  0.81038807  1
  C  C170  1  0.31089497  0.90756239  0.92796575  1
  H  H171  1  0.37469112  0.78191116  0.82526898  1
  O  O172  1  0.09385096  0.92057358  0.94517220  1
  C  C173  1  0.32218778  0.87243585  0.87346885  1
  O  O174  1  0.40774235  0.63902174  0.78858905  1
  C  C175  1  0.33830734  0.87501337  0.97875405  1
  C  C176  1  0.12724086  0.69870817  0.89635228  1
  C  C177  1  0.06450758  0.65759443  0.87178458  1
  H  H178  1  0.27522431  0.95969942  0.92671227  1
  C  C179  1  0.11725675  0.77439256  0.91244670  1
  C  C180  1  0.28544828  0.90460142  0.81719325  1
  C  C181  1  0.37034324  0.80889595  0.87044047  1
  C  C182  1  0.40583835  0.77987592  0.92288761  1
  C  C183  1  0.38233106  0.80889465  0.97790955  1
  O  O184  1  0.22905722  0.59790455  0.88443930  1
  H  H185  1  0.16534581  0.81093739  0.93310604  1
  H  H186  1  0.07142103  0.59706037  0.86380460  1
  C  C187  1  0.21148054  0.66220802  0.90378923  1
  Zn  Zn188  1  0.31032630  0.56467087  0.81505820  1
  O  O189  1  0.25931146  0.69788707  0.93382457  1
  C  C190  1  0.03976828  0.80549202  0.90777247  1
  C  C191  1  0.03094770  0.88792088  0.92775326  1
  O  O192  1  0.30067278  0.87200883  0.76858797  1
  O  O193  1  0.00708952  0.51411963  0.80580033  1
  C  C194  1  0.46947866  0.71851303  0.90962497  1
  C  C195  1  0.49625211  0.68134414  0.86965497  1
  O  O196  1  0.44991547  0.99227744  0.80130499  1
  C  C197  1  0.48536692  0.99932691  0.75400735  1
  O  O198  1  0.88817183  0.03071988  0.12270825  1
  O  O199  1  0.83737041  0.16482774  0.09816414  1
  O  O200  1  0.56245178  0.22429033  0.00733082  1
  C  C201  1  0.86649590  0.17321381  0.03107961  1
  H  H202  1  0.87384057  0.11995428  0.10718868  1
  O  O203  1  0.57103335  0.11684127  0.05363150  1
  C  C204  1  0.53321778  0.17330065  0.03730241  1
  O  O205  1  0.94254627  0.15466484  0.01876413  1
  H  H206  1  0.76282515  0.19132283  0.14953121  1
  H  H207  1  0.67735073  0.14531031  0.15880225  1
  O  O208  1  0.71440328  0.18011002  0.17720638  1
  O  O209  1  0.98999952  0.33900327  0.20474925  1
  O  O210  1  0.76487541  0.37935553  0.02127836  1
  C  C211  1  0.81999184  0.06158106  0.31467780  1
  C  C212  1  0.61780665  0.09420435  0.31595035  1
  H  H213  1  0.82983799  0.48470812  0.34326591  1
  C  C214  1  0.53476597  0.45064486  0.44698875  1
  O  O215  1  0.56513546  0.39060412  0.46945073  1
  C  C216  1  0.67718630  0.07774595  0.35982194  1
  C  C217  1  0.54020468  0.16244884  0.39155821  1
  C  C218  1  0.60379933  0.14723372  0.43021969  1
  H  H219  1  0.96008327  0.43732509  0.27897120  1
  H  H220  1  0.72259457  0.09012554  0.44714910  1
  C  C221  1  0.67260543  0.10177272  0.41663588  1
  H  H222  1  0.82772657  0.12411834  0.31450833  1
  C  C223  1  0.88455274  0.01593517  0.29485398  1
  C  C224  1  0.54772801  0.13206845  0.33500920  1
  O  O225  1  0.93399277  0.48240369  0.29595886  1
  H  H226  1  0.62804776  0.07693499  0.26918551  1
  C  C227  1  0.95955510  0.04847576  0.27297476  1
  C  C228  1  0.74795281  0.02811378  0.33506845  1
  O  O229  1  0.97334922  0.11503480  0.26724348  1
  C  C230  1  0.59932236  0.18304978  0.48938664  1
  Zn  Zn231  1  0.51027973  0.33234111  0.54162421  1
  H  H232  1  0.99488449  0.17411454  0.65206890  1
  O  O233  1  0.66112327  0.17593268  0.52102098  1
  C  C234  1  0.56306493  0.32126491  0.66199531  1
  H  H235  1  0.66973949  0.37622671  0.74657418  1
  C  C236  1  0.56461398  0.30864455  0.72954848  1
  O  O237  1  0.62491700  0.34479965  0.64086526  1
  H  H238  1  0.75060166  0.49034676  0.59025173  1
  H  H239  1  0.96775417  0.04118624  0.65534433  1
  Zn  Zn240  1  0.71724846  0.08118583  0.58734102  1
  H  H241  1  0.59295250  0.03762578  0.67392147  1
  C  C242  1  0.84702002  0.09460772  0.59473431  1
  O  O243  1  0.81863180  0.43467439  0.65809616  1
  O  O244  1  0.89330249  0.13130876  0.56575370  1
  O  O245  1  0.91763474  0.06481479  0.73887222  1
  C  C246  1  0.83304589  0.03958783  0.64449189  1
  O  O247  1  0.53893149  0.22186378  0.50108476  1
  O  O248  1  0.50027271  0.30359946  0.63052849  1
  C  C249  1  0.75165145  0.01833632  0.65732606  1
  C  C250  1  0.91442102  0.02882549  0.68424777  1
  O  O251  1  0.93379208  0.47409949  0.68830220  1
  C  C252  1  0.87097931  0.48331495  0.65834608  1
  H  H253  1  0.68036376  0.46858955  0.50103116  1
  C  C254  1  0.74506714  0.37835109  0.97072550  1
  C  C255  1  0.90615417  0.13033307  0.84847686  1
  C  C256  1  0.81326563  0.17730795  0.99449315  1
  C  C257  1  0.90290929  0.15771718  0.90517555  1
  C  C258  1  0.97323212  0.16258082  0.94714386  1
  C  C259  1  0.68759436  0.35418956  0.92431647  1
  O  O260  1  0.71363016  0.15742546  0.84457871  1
  C  C261  1  0.67423547  0.36164482  0.86642178  1
  C  C262  1  0.74149183  0.17427699  0.89082385  1
  C  C263  1  0.81700784  0.17484404  0.92856025  1
  H  H264  1  0.85211048  0.12673014  0.82065265  1
  C  C265  1  0.61237626  0.33105963  0.82811412  1
  H  H266  1  0.54019626  0.27933649  0.90048582  1
  Zn  Zn267  1  0.77908040  0.42695185  0.88360927  1
  C  C268  1  0.55018747  0.28468117  0.85269903  1
  H  H269  1  0.98717818  0.22411598  0.95869143  1
  C  C270  1  0.98223196  0.09360239  0.83336659  1
  C  C271  1  0.99285443  0.06553076  0.77313965  1
  O  O272  1  0.91386482  0.46865473  0.86491747  1
  Zn  Zn273  1  0.68444786  0.18464621  0.97433337  1
  C  C274  1  0.50400713  0.26222536  0.75504099  1
  C  C275  1  0.62056282  0.34211927  0.76570393  1
  C  C276  1  0.62216943  0.81335588  0.08875661  1
  C  C277  1  0.93472881  0.90370511  0.13620236  1
  C  C278  1  0.56407445  0.84233565  0.12359982  1
  C  C279  1  0.57458298  0.91435000  0.16426749  1
  H  H280  1  0.53231926  0.64784547  0.04563773  1
  H  H281  1  0.93810312  0.69308584  0.17333107  1
  H  H282  1  0.81599996  0.91769147  0.17946906  1
  C  C283  1  0.67791991  0.70301814  0.02415573  1
  H  H284  1  0.99047267  0.91176664  0.21147400  1
  C  C285  1  0.86786933  0.80171873  0.17746642  1
  C  C286  1  0.94345719  0.98418226  0.11672540  1
  C  C287  1  0.80404827  0.76193420  0.20871409  1
  H  H288  1  0.68087734  0.84554661  0.08944587  1
  C  C289  1  0.61094652  0.74385024  0.05940722  1
  C  C290  1  0.53858843  0.70269122  0.06795888  1
  O  O291  1  0.63348257  0.95560776  0.16010848  1
  C  C292  1  0.86594130  0.88014464  0.16771474  1
  C  C293  1  0.79166280  0.68646582  0.22376263  1
  C  C294  1  0.93703783  0.75280160  0.16281910  1
  O  O295  1  0.82509619  0.81338252  0.01006349  1
  O  O296  1  0.51535300  0.92232349  0.20098181  1
  C  C297  1  0.74357571  0.70474043  0.00139463  1
  H  H298  1  0.55013312  0.90560126  0.01831464  1
  C  C299  1  0.57661799  0.65964597  0.45792769  1
  C  C300  1  0.73485218  0.94757177  0.33123627  1
  O  O301  1  0.64557212  0.84595223  0.32594879  1
  C  C302  1  0.80237532  0.90105495  0.32276146  1
  O  O303  1  0.59130687  0.79197244  0.45997797  1
  C  C304  1  0.81949800  0.71393698  0.48345381  1
  C  C305  1  0.93795337  0.80261212  0.30484033  1
  H  H306  1  0.76046447  0.54632164  0.34555605  1
  O  O307  1  0.81018339  0.69192316  0.43001957  1
  O  O308  1  0.59127917  0.95062842  0.36007688  1
  C  C309  1  0.94566613  0.88105715  0.29624895  1
  Zn  Zn310  1  0.89545876  0.60923201  0.40380571  1
  C  C311  1  0.65302067  0.91316378  0.34215027  1
  O  O312  1  0.92818082  0.64644794  0.31757726  1
  O  O313  1  0.82290985  0.77866618  0.49545154  1
  H  H314  1  0.79094697  0.84191358  0.32613082  1
  C  C315  1  0.53542918  0.59315317  0.44367375  1
  C  C316  1  0.87687069  0.93270096  0.30396989  1
  H  H317  1  0.88272262  0.77852165  0.31971684  1
  C  C318  1  0.65180374  0.52389966  0.48822332  1
  O  O319  1  0.97003904  0.54039452  0.46724735  1
  C  C320  1  0.54487772  0.73807651  0.44299817  1
  C  C321  1  0.99712267  0.67288763  0.30071209  1
  C  C322  1  0.57706724  0.52722522  0.45985050  1
  O  O323  1  0.80138161  0.52167828  0.37065766  1
  C  C324  1  0.65313533  0.65833978  0.48411108  1
  O  O325  1  0.69666901  0.58661455  0.27256999  1
  H  H326  1  0.96593615  0.52549296  0.29071981  1
  Zn  Zn327  1  0.69989565  0.76615194  0.25120826  1
  C  C328  1  0.72938096  0.63976065  0.25332952  1
  Zn  Zn329  1  0.52702647  0.89406222  0.43280092  1
  H  H330  1  0.68715768  0.71534180  0.49284220  1
  C  C331  1  0.64045124  0.82307674  0.62638337  1
  C  C332  1  0.72485913  0.72268662  0.68618169  1
  H  H333  1  0.91748727  0.96618401  0.69779470  1
  H  H334  1  0.68995959  0.86686513  0.62996988  1
  C  C335  1  0.78831402  0.53997133  0.57968906  1
  C  C336  1  0.70703570  0.97578195  0.70097496  1
  C  C337  1  0.89391484  0.67131631  0.56866031  1
  C  C338  1  0.64330688  0.75207793  0.65082753  1
  C  C339  1  0.57522846  0.84254046  0.58935681  1
  C  C340  1  0.57574799  0.70609262  0.64904464  1
  C  C341  1  0.76945773  0.59568611  0.53993978  1
  O  O342  1  0.78871251  0.75953294  0.69249868  1
  O  O343  1  0.71874998  0.65782869  0.70237396  1
  H  H344  1  0.91999873  0.75129434  0.65677707  1
  C  C345  1  0.97418372  0.71828494  0.66513985  1
  C  C346  1  0.90863144  0.61423613  0.61266886  1
  H  H347  1  0.58057344  0.65367384  0.67195143  1
  H  H348  1  0.93525707  0.71970843  0.55618798  1
  C  C349  1  0.85464155  0.54970401  0.61770074  1
  C  C350  1  0.57229771  0.91742556  0.55740064  1
  C  C351  1  0.82474967  0.65801046  0.53807486  1
  O  O352  1  0.62277911  0.96674781  0.55989066  1
  C  C353  1  0.57517802  0.96477221  0.74662182  1
  C  C354  1  0.98114948  0.64184668  0.64599476  1
  O  O355  1  0.50990408  0.92690979  0.52232395  1
  C  C356  1  0.50679801  0.79487718  0.58515536  1
  C  C357  1  0.69015203  0.59124030  0.50330149  1
  C  C358  1  0.50375006  0.72971946  0.61944427  1
  H  H359  1  0.80935549  0.54324365  0.74223893  1
  H  H360  1  0.51410209  0.57739680  0.60049813  1
  O  O361  1  0.98561060  0.86466871  0.69582850  1
  C  C362  1  0.62170836  0.99663458  0.70408591  1
  H  H363  1  0.80235227  0.90031320  0.74271990  1
  C  C364  1  0.73872844  0.92291519  0.74274104  1
  C  C365  1  0.80836843  0.56687986  0.78879602  1
  H  H366  1  0.60571924  0.74487806  0.91297037  1
  C  C367  1  0.93971231  0.51694285  0.82974167  1
  C  C368  1  0.68658885  0.89711868  0.78362951  1
  Zn  Zn369  1  0.82031301  0.69457814  0.79978490  1
  H  H370  1  0.57133723  0.90547118  0.83364107  1
  O  O371  1  0.75028132  0.54150980  0.81797815  1
  C  C372  1  0.98713980  0.69248546  0.86563705  1
  C  C373  1  0.55432504  0.93332979  0.97488741  1
  C  C374  1  0.89283308  0.58843266  0.81479094  1
  O  O375  1  0.53543701  0.60905134  0.78819520  1
  C  C376  1  0.92491457  0.65347048  0.83472821  1
  O  O377  1  0.59544446  0.63190043  0.93761304  1
  O  O378  1  0.79162616  0.81350379  0.82370044  1
  C  C379  1  0.71755355  0.83610440  0.82490416  1
  C  C380  1  0.56349733  0.69520000  0.92157150  1
  C  C381  1  0.68263861  0.63521559  0.98102118  1
  C  C382  1  0.60371862  0.91887240  0.79063454  1
  O  O383  1  0.66360603  0.81094274  0.85602175  1
  O  O384  1  0.70677334  0.57337632  0.99026841  1
  O  O385  1  0.59360798  0.98774004  0.97289771  1
  H  H386  1  0.87166216  0.72194035  0.96878681  1
  C  C387  1  0.97349476  0.76960188  0.88306958  1
  H  H388  1  0.91306567  0.79760632  0.87993430  1
  O  O389  1  0.96603437  0.91985795  0.92457763  1
  H  H390  1  0.52610051  0.90470196  0.93783446  1
  C  C391  1  0.82171335  0.75100998  0.99506104  1
