# generated using pymatgen
data_ZnH2(C3O2)2
_symmetry_space_group_name_H-M   'P 1'
_cell_length_a   19.99480253
_cell_length_b   14.77102078
_cell_length_c   16.04813554
_cell_angle_alpha   90.00000000
_cell_angle_beta   90.00000000
_cell_angle_gamma   90.00000000
_symmetry_Int_Tables_number   1
_chemical_formula_structural   ZnH2(C3O2)2
_chemical_formula_sum   'Zn24 H48 C144 O96'
_cell_volume   4739.71482212
_cell_formula_units_Z   24
loop_
 _symmetry_equiv_pos_site_id
 _symmetry_equiv_pos_as_xyz
  1  'x, y, z'
loop_
 _atom_site_type_symbol
 _atom_site_label
 _atom_site_symmetry_multiplicity
 _atom_site_fract_x
 _atom_site_fract_y
 _atom_site_fract_z
 _atom_site_occupancy
  C  C0  1  0.08801844  0.06989571  0.36813751  1
  O  O1  1  0.14955638  0.12197212  0.47933306  1
  C  C2  1  0.02980643  0.07647585  0.41535021  1
  O  O3  1  0.35421124  0.19281033  0.32689389  1
  Zn  Zn4  1  0.30840148  0.07684985  0.39221762  1
  O  O5  1  0.42803258  0.17864398  0.42388145  1
  C  C6  1  0.41336659  0.20797613  0.35279854  1
  C  C7  1  0.15439156  0.09630897  0.40527344  1
  H  H8  1  0.13007267  0.04863559  0.24217544  1
  H  H9  1  0.03364889  0.09032868  0.48313291  1
  C  C10  1  0.02500263  0.01661004  0.24867799  1
  O  O11  1  0.20464288  0.10216658  0.35914436  1
  C  C12  1  0.08410429  0.04584569  0.28334053  1
  H  H13  1  0.44069409  0.02620925  0.24114773  1
  Zn  Zn14  1  0.48436473  0.00302052  0.00302270  1
  O  O15  1  0.24902832  0.01931580  0.61475308  1
  Zn  Zn16  1  0.13860432  0.04579285  0.58606548  1
  O  O17  1  0.36766295  0.19195882  0.87719206  1
  C  C18  1  0.06038311  0.17210067  0.70138497  1
  H  H19  1  0.16136630  0.22625576  0.79097886  1
  C  C20  1  0.48985064  0.18288589  0.87723860  1
  C  C21  1  0.41964448  0.15974105  0.91015405  1
  C  C22  1  0.42309736  0.05433742  0.59791228  1
  O  O23  1  0.41742360  0.10679568  0.97081683  1
  O  O24  1  0.11300993  0.12887586  0.68612476  1
  C  C25  1  0.47872567  0.04266699  0.65063731  1
  C  C26  1  0.30325549  0.04894079  0.58661637  1
  H  H27  1  0.42404148  0.09016236  0.53640357  1
  C  C28  1  0.36399632  0.02403714  0.63446998  1
  O  O29  1  0.30773864  0.10117623  0.52469074  1
  C  C30  1  0.05669088  0.23301136  0.77367417  1
  O  O31  1  0.00671508  0.14927560  0.66191072  1
  H  H32  1  0.43980343  0.22532539  0.76200235  1
  C  C33  1  0.48855791  0.21818145  0.79675516  1
  H  H34  1  0.01874995  0.01258206  0.73526428  1
  C  C35  1  0.47741475  0.00112656  0.72621362  1
  O  O36  1  0.38473807  0.32005115  0.05805268  1
  C  C37  1  0.44468812  0.33220418  0.07165664  1
  O  O38  1  0.47880495  0.37276645  0.01613877  1
  C  C39  1  0.45497390  0.46552044  0.36825763  1
  C  C40  1  0.48774074  0.43734057  0.44913462  1
  C  C41  1  0.47984696  0.30758999  0.15218417  1
  H  H42  1  0.35541445  0.42246769  0.40597264  1
  O  O43  1  0.25016036  0.46605175  0.32735526  1
  C  C44  1  0.28449060  0.46602864  0.26058983  1
  C  C45  1  0.38681313  0.45056011  0.35542255  1
  Zn  Zn46  1  0.17580091  0.40672231  0.12068878  1
  C  C47  1  0.35801883  0.47421704  0.27993291  1
  H  H48  1  0.02020353  0.29398078  0.32233705  1
  O  O49  1  0.44836305  0.39505448  0.49949228  1
  O  O50  1  0.26339902  0.46326526  0.18931196  1
  O  O51  1  0.11772308  0.31578902  0.19739028  1
  C  C52  1  0.44151908  0.27841606  0.21908392  1
  O  O53  1  0.07737470  0.25566515  0.08488476  1
  O  O54  1  0.00689319  0.48816758  0.06407102  1
  C  C55  1  0.46491298  0.25111482  0.29742966  1
  C  C56  1  0.07021555  0.27844988  0.15637408  1
  C  C57  1  0.00081587  0.25556720  0.19351163  1
  H  H58  1  0.38701056  0.26839752  0.21318570  1
  C  C59  1  0.17328009  0.33416272  0.93323405  1
  O  O60  1  0.33871775  0.41607288  0.85026676  1
  Zn  Zn61  1  0.32591997  0.30913387  0.93120864  1
  C  C62  1  0.38782794  0.49566068  0.73789295  1
  C  C63  1  0.39350725  0.44712999  0.81927419  1
  O  O64  1  0.05533733  0.42362680  0.65502741  1
  C  C65  1  0.11285444  0.31209315  0.88367000  1
  H  H66  1  0.05346318  0.40501176  0.95916014  1
  C  C67  1  0.05431840  0.35837580  0.90622331  1
  H  H68  1  0.28109939  0.48284872  0.72823690  1
  O  O69  1  0.49003420  0.30339430  0.64671956  1
  O  O70  1  0.44807605  0.44285273  0.85517546  1
  O  O71  1  0.22200210  0.28052749  0.91862071  1
  O  O72  1  0.01496526  0.33189397  0.55834051  1
  C  C73  1  0.00703548  0.38355738  0.61895707  1
  Zn  Zn74  1  0.46332522  0.25370627  0.52861285  1
  C  C75  1  0.11629342  0.25160805  0.81540919  1
  O  O76  1  0.17756562  0.39493033  0.98678407  1
  C  C77  1  0.05750125  0.55431026  0.26652991  1
  C  C78  1  0.03273928  0.55406830  0.34705703  1
  O  O79  1  0.05058771  0.59835318  0.49262848  1
  O  O80  1  0.40567253  0.68752737  0.38588753  1
  O  O81  1  0.30298301  0.68984177  0.34067546  1
  O  O82  1  0.13030559  0.62411007  0.39998106  1
  C  C83  1  0.36332818  0.70683127  0.33278332  1
  Zn  Zn84  1  0.23539714  0.58581940  0.40129293  1
  C  C85  1  0.46635003  0.51360882  0.22933367  1
  H  H86  1  0.10988730  0.57722960  0.25403415  1
  C  C87  1  0.07502597  0.59465140  0.41720715  1
  O  O88  1  0.05977223  0.74468586  0.10391876  1
  C  C89  1  0.01242453  0.70470223  0.06913547  1
  C  C90  1  0.49673374  0.50049810  0.30647280  1
  C  C91  1  0.39808923  0.50426559  0.21382360  1
  H  H92  1  0.37609553  0.53186380  0.15545052  1
  C  C93  1  0.02033970  0.51005803  0.20612091  1
  O  O94  1  0.48935876  0.57042799  0.08884267  1
  C  C95  1  0.04872176  0.51022620  0.11857697  1
  O  O96  1  0.10967182  0.52207821  0.10732940  1
  C  C97  1  0.01749040  0.68321671  0.67232680  1
  H  H98  1  0.37737483  0.61648908  0.51836789  1
  C  C99  1  0.32459471  0.54880047  0.61984500  1
  C  C100  1  0.44265630  0.69509424  0.84446103  1
  O  O101  1  0.32518364  0.68192047  0.85941403  1
  C  C102  1  0.37923221  0.58407286  0.58101795  1
  C  C103  1  0.38128183  0.66082626  0.88991886  1
  C  C104  1  0.43996942  0.57220921  0.62353625  1
  Zn  Zn105  1  0.45660645  0.50707890  0.98112593  1
  Zn  Zn106  1  0.10278433  0.53493004  0.59124797  1
  O  O107  1  0.07377762  0.64581323  0.66336895  1
  O  O108  1  0.38612473  0.60949133  0.95166900  1
  C  C109  1  0.49942142  0.68616998  0.89522264  1
  C  C110  1  0.44650186  0.52864706  0.69975668  1
  C  C111  1  0.25627658  0.56560108  0.58618316  1
  O  O112  1  0.25036374  0.61538441  0.52277622  1
  H  H113  1  0.49827459  0.65224530  0.95634473  1
  C  C114  1  0.44005278  0.73067330  0.76694606  1
  O  O115  1  0.20463576  0.53295792  0.62011961  1
  O  O116  1  0.01051356  0.67498696  0.99684104  1
  C  C117  1  0.01274062  0.73845272  0.74786595  1
  H  H118  1  0.11905009  0.74551977  0.75624001  1
  H  H119  1  0.39469035  0.73062541  0.73177970  1
  C  C120  1  0.32616649  0.50822842  0.69986493  1
  H  H121  1  0.49257950  0.51933383  0.73533798  1
  H  H122  1  0.39844791  0.85191801  0.01893282  1
  O  O123  1  0.21163069  0.81264784  0.11565465  1
  C  C124  1  0.26850451  0.82552339  0.08099033  1
  O  O125  1  0.27046450  0.85135486  0.00764665  1
  Zn  Zn126  1  0.11885770  0.85725919  0.07333080  1
  C  C127  1  0.40945011  0.93192616  0.38008015  1
  C  C128  1  0.39483276  0.83215760  0.08713412  1
  O  O129  1  0.39832480  0.89540137  0.44929184  1
  O  O130  1  0.36454300  0.97325679  0.34003231  1
  C  C131  1  0.47954286  0.95384417  0.34819091  1
  C  C132  1  0.33451067  0.80713002  0.12173740  1
  C  C133  1  0.44945783  0.81203730  0.14033394  1
  H  H134  1  0.28040878  0.75526837  0.23123922  1
  O  O135  1  0.07264156  0.97666653  0.11477254  1
  C  C136  1  0.48490494  0.99736773  0.27177552  1
  C  C137  1  0.02208223  0.98855796  0.16062832  1
  C  C138  1  0.44773002  0.78162203  0.22246984  1
  C  C139  1  0.33040687  0.77304923  0.20402792  1
  Zn  Zn140  1  0.44195770  0.76837515  0.48414552  1
  C  C141  1  0.38640934  0.75315513  0.25256753  1
  H  H142  1  0.49597834  0.77295500  0.25682293  1
  H  H143  1  0.30836296  0.97534514  0.74406369  1
  O  O144  1  0.45694279  0.81880531  0.60994577  1
  C  C145  1  0.03352572  0.90027953  0.58299602  1
  Zn  Zn146  1  0.28463628  0.81327811  0.88058915  1
  C  C147  1  0.41539607  0.93179676  0.84200485  1
  O  O148  1  0.13046403  0.89974522  0.94786699  1
  O  O149  1  0.46727790  0.92950161  0.88627755  1
  C  C150  1  0.06621182  0.83276448  0.84546872  1
  O  O151  1  0.02018729  0.85769340  0.51552687  1
  C  C152  1  0.13315693  0.86491931  0.87808401  1
  C  C153  1  0.07216204  0.77610273  0.77533821  1
  O  O154  1  0.35617465  0.92063760  0.86667690  1
  O  O155  1  0.18519284  0.84880731  0.83626135  1
  O  O156  1  0.09123095  0.91987084  0.60147236  1
  C  C157  1  0.00877731  0.85810465  0.88532051  1
  H  H158  1  0.00712659  0.90607303  0.94018619  1
  C  C159  1  0.41514660  0.96813200  0.75564288  1
  C  C160  1  0.35598112  0.98398879  0.71394487  1
  O  O161  1  0.62117548  0.06705220  0.14153086  1
  C  C162  1  0.84804509  0.15814549  0.09949586  1
  H  H163  1  0.97336217  0.21537697  0.06978303  1
  C  C164  1  0.89232522  0.19889556  0.16131922  1
  C  C165  1  0.87086160  0.21779732  0.24548430  1
  C  C166  1  0.96960789  0.04533984  0.37966555  1
  C  C167  1  0.56156764  0.05336730  0.15805661  1
  O  O168  1  0.79134319  0.13198898  0.12891445  1
  H  H169  1  0.81519260  0.21139064  0.26251214  1
  Zn  Zn170  1  0.68899028  0.17847104  0.11794338  1
  Zn  Zn171  1  0.92733228  0.01449238  0.00488732  1
  C  C172  1  0.91400021  0.03757019  0.44441947  1
  C  C173  1  0.95623396  0.22081938  0.13489991  1
  O  O174  1  0.86300953  0.13536452  0.02488247  1
  O  O175  1  0.51276545  0.07703443  0.11452706  1
  C  C176  1  0.91856151  0.24639852  0.29766902  1
  O  O177  1  0.85845258  0.00421291  0.42475879  1
  C  C178  1  0.96607528  0.01824203  0.29602573  1
  H  H179  1  0.56409879  0.23984069  0.36285349  1
  C  C180  1  0.54883260  0.00331777  0.23874811  1
  O  O181  1  0.83839063  0.24839651  0.40393105  1
  O  O182  1  0.59743846  0.06068110  0.63660901  1
  Zn  Zn183  1  0.82777099  0.19721917  0.90992174  1
  C  C184  1  0.55001515  0.17294895  0.92246265  1
  Zn  Zn185  1  0.96792664  0.19458290  0.54525723  1
  O  O186  1  0.53417868  0.13451053  0.54786178  1
  O  O187  1  0.95283879  0.06611807  0.88068611  1
  C  C188  1  0.90656147  0.05211556  0.82873165  1
  O  O189  1  0.84789926  0.07870499  0.84431026  1
  C  C190  1  0.54045721  0.08292226  0.60890321  1
  C  C191  1  0.67346462  0.19583823  0.92628420  1
  C  C192  1  0.60760576  0.20576347  0.88403281  1
  O  O193  1  0.67755197  0.14498790  0.98902270  1
  H  H194  1  0.54509314  0.14710344  0.98714530  1
  H  H195  1  0.94971361  0.24723751  0.76814002  1
  O  O196  1  0.92425446  0.06383214  0.51904500  1
  O  O197  1  0.72569571  0.22964070  0.89378265  1
  O  O198  1  0.83484447  0.41790672  0.25418516  1
  H  H199  1  0.58332041  0.33973474  0.11770390  1
  C  C200  1  0.57549542  0.29093546  0.24399652  1
  O  O201  1  0.94307115  0.27322880  0.44036175  1
  C  C202  1  0.65196697  0.29482345  0.25870982  1
  C  C203  1  0.55027026  0.31382028  0.16675298  1
  O  O204  1  0.54976872  0.43868539  0.46152996  1
  Zn  Zn205  1  0.75720325  0.34436991  0.37990206  1
  O  O206  1  0.69066977  0.30070942  0.19724726  1
  O  O207  1  0.67640712  0.28660018  0.33121864  1
  H  H208  1  0.92643303  0.44421932  0.17114956  1
  C  C209  1  0.53383107  0.26155664  0.30983049  1
  C  C210  1  0.86000774  0.45586906  0.31487269  1
  C  C211  1  0.89942974  0.25127070  0.38861837  1
  C  C212  1  0.98416266  0.27024797  0.27594715  1
  O  O213  1  0.83016710  0.45794086  0.38357382  1
  C  C214  1  0.95727584  0.47297933  0.22297075  1
  C  C215  1  0.93336421  0.48500804  0.30279570  1
  O  O216  1  0.70888708  0.46801447  0.58640804  1
  Zn  Zn217  1  0.60590228  0.45123983  0.58123084  1
  C  C218  1  0.82106525  0.42300478  0.61356754  1
  C  C219  1  0.75680339  0.41419760  0.56807811  1
  C  C220  1  0.92745467  0.35927712  0.89471206  1
  C  C221  1  0.88372020  0.38915138  0.59033333  1
  O  O222  1  0.92059316  0.42133889  0.94788773  1
  O  O223  1  0.87826348  0.31667918  0.86977637  1
  O  O224  1  0.59868477  0.32613935  0.64825757  1
  C  C225  1  0.99564833  0.26852051  0.79749869  1
  C  C226  1  0.54737845  0.29791980  0.68067704  1
  C  C227  1  0.93817753  0.42117273  0.63703955  1
  C  C228  1  0.99661405  0.33071687  0.86302145  1
  H  H229  1  0.89183811  0.34233564  0.53628654  1
  C  C230  1  0.93420329  0.48160324  0.70258645  1
  H  H231  1  0.65699191  0.27058088  0.77569594  1
  O  O232  1  0.75025036  0.35081551  0.51872567  1
  C  C233  1  0.54958519  0.25214304  0.76528893  1
  C  C234  1  0.60975101  0.25008490  0.80611976  1
  C  C235  1  0.81527869  0.48142814  0.68354665  1
  C  C236  1  0.77025273  0.64853936  0.08898697  1
  C  C237  1  0.95084846  0.70736094  0.11862700  1
  C  C238  1  0.89252510  0.67143958  0.08267816  1
  O  O239  1  0.77453357  0.62385569  0.01517067  1
  O  O240  1  0.57080107  0.56712864  0.17517926  1
  C  C241  1  0.51000660  0.55025716  0.16006576  1
  C  C242  1  0.83449793  0.67314098  0.12922317  1
  H  H243  1  0.94877820  0.52928274  0.42915296  1
  H  H244  1  0.89399170  0.64911978  0.01497819  1
  Zn  Zn245  1  0.61874043  0.68306575  0.10849567  1
  O  O246  1  0.71796197  0.65617383  0.12924119  1
  C  C247  1  0.97020342  0.52138047  0.36806541  1
  H  H248  1  0.79004840  0.70050350  0.25309856  1
  C  C249  1  0.83439798  0.69908853  0.21275161  1
  C  C250  1  0.89477548  0.72601795  0.24862764  1
  C  C251  1  0.95236169  0.73921968  0.20032567  1
  C  C252  1  0.89531424  0.74202319  0.33843587  1
  H  H253  1  0.55050984  0.50826567  0.31479433  1
  O  O254  1  0.67543106  0.73385211  0.88857275  1
  Zn  Zn255  1  0.96923413  0.54959254  0.95241143  1
  O  O256  1  0.55767101  0.57374350  0.60948091  1
  O  O257  1  0.80900629  0.59080006  0.83069916  1
  O  O258  1  0.96975724  0.67417153  0.62376799  1
  C  C259  1  0.86717125  0.56858994  0.80622650  1
  O  O260  1  0.92199042  0.58886122  0.83555843  1
  Zn  Zn261  1  0.77730437  0.69310268  0.89812014  1
  C  C262  1  0.55810277  0.71826301  0.85778244  1
  H  H263  1  0.76823854  0.50097184  0.70993093  1
  C  C264  1  0.61887103  0.70582942  0.91070731  1
  O  O265  1  0.61063532  0.66121551  0.97742851  1
  C  C266  1  0.87007243  0.50926456  0.72839279  1
  H  H267  1  0.90557074  0.72630521  0.75782598  1
  C  C268  1  0.50257829  0.60404843  0.58287976  1
  H  H269  1  0.98004977  0.50088326  0.73701623  1
  O  O270  1  0.50180456  0.65021136  0.51777740  1
  Zn  Zn271  1  0.98261705  0.72346557  0.50132694  1
  O  O272  1  0.95070744  0.75520282  0.37706591  1
  O  O273  1  0.71382780  0.92584685  0.38319029  1
  C  C274  1  0.51655206  0.83698661  0.10440783  1
  C  C275  1  0.59341530  0.93131206  0.36034694  1
  C  C276  1  0.65561106  0.90814642  0.40762704  1
  Zn  Zn277  1  0.80879064  0.87827561  0.43301073  1
  C  C278  1  0.53029033  0.91424333  0.39393849  1
  O  O279  1  0.83996959  0.75034027  0.37648995  1
  H  H280  1  0.99814293  0.75642761  0.23483788  1
  H  H281  1  0.52358169  0.88008082  0.45603514  1
  O  O282  1  0.57006873  0.81485677  0.13778861  1
  O  O283  1  0.51718326  0.87695218  0.03495802  1
  O  O284  1  0.64311544  0.87070221  0.47724107  1
  O  O285  1  0.96385305  0.97970825  0.13055571  1
  C  C286  1  0.60492870  0.97470392  0.28387076  1
  H  H287  1  0.91970937  0.99080685  0.27066199  1
  H  H288  1  0.65622145  0.98946899  0.26166595  1
  O  O289  1  0.73601111  0.91289416  0.64947006  1
  O  O290  1  0.56686790  0.82636945  0.62302481  1
  O  O291  1  0.83660296  0.81567102  0.85889251  1
  Zn  Zn292  1  0.63655449  0.93526721  0.59523652  1
  C  C293  1  0.97464073  0.92907784  0.63604642  1
  C  C294  1  0.88826216  0.84837457  0.89231108  1
  C  C295  1  0.50887359  0.80801968  0.65303726  1
  C  C296  1  0.78635860  0.88516022  0.61145703  1
  C  C297  1  0.95138823  0.81918997  0.85046078  1
  H  H298  1  0.91627114  0.86538959  0.53818673  1
  C  C299  1  0.91313857  0.90349430  0.60032031  1
  O  O300  1  0.88661794  0.88717513  0.96236569  1
  C  C301  1  0.85308137  0.91613435  0.64241345  1
  O  O302  1  0.78605171  0.83515224  0.54899611  1
  C  C303  1  0.95206719  0.76096841  0.78170567  1
  H  H304  1  0.60936101  0.76468433  0.74431547  1
  C  C305  1  0.85317933  0.95809283  0.72014720  1
  C  C306  1  0.97350194  0.97515761  0.71199557  1
  C  C307  1  0.50154081  0.76545154  0.73552914  1
  H  H308  1  0.80573931  0.96202318  0.75677469  1
  C  C309  1  0.56165979  0.75434857  0.77740908  1
  H  H310  1  0.52403917  0.99166899  0.76313905  1
  C  C311  1  0.91397474  0.99439303  0.75078873  1
