# generated using pymatgen
data_Zn3H6C12N6O7
_symmetry_space_group_name_H-M   'P 1'
_cell_length_a   13.75701099
_cell_length_b   18.67062312
_cell_length_c   15.81721792
_cell_angle_alpha   90.00000000
_cell_angle_beta   90.00000000
_cell_angle_gamma   90.00000000
_symmetry_Int_Tables_number   1
_chemical_formula_structural   Zn3H6C12N6O7
_chemical_formula_sum   'Zn24 H48 C96 N48 O56'
_cell_volume   4062.68354240
_cell_formula_units_Z   8
loop_
 _symmetry_equiv_pos_site_id
 _symmetry_equiv_pos_as_xyz
  1  'x, y, z'
loop_
 _atom_site_type_symbol
 _atom_site_label
 _atom_site_symmetry_multiplicity
 _atom_site_fract_x
 _atom_site_fract_y
 _atom_site_fract_z
 _atom_site_occupancy
  N  N0  1  0.46556375  0.23029405  0.12903923  1
  C  C1  1  0.30429384  0.22643120  0.07083725  1
  C  C2  1  0.43494328  0.07871297  0.19712732  1
  N  N3  1  0.34637066  0.25544670  0.13692674  1
  N  N4  1  0.34739591  0.06156154  0.16542386  1
  C  C5  1  0.47338156  0.20001544  0.05749368  1
  C  C6  1  0.37820217  0.19698581  0.01902109  1
  H  H7  1  0.32338577  0.47633761  0.07079294  1
  H  H8  1  0.22414137  0.23094760  0.05337682  1
  Zn  Zn9  1  0.07703957  0.47251034  0.19697240  1
  H  H10  1  0.30094041  0.08572523  0.12187257  1
  O  O11  1  0.21477296  0.35244581  0.06875441  1
  C  C12  1  0.31437580  0.44357740  0.01609692  1
  H  H13  1  0.45911458  0.13298688  0.17479946  1
  Zn  Zn14  1  0.29010526  0.30682170  0.23403178  1
  C  C15  1  0.26362505  0.37591546  0.01193799  1
  C  C16  1  0.04455953  0.40102398  0.36219380  1
  N  N17  1  0.09791286  0.40451639  0.29562729  1
  H  H18  1  0.20127151  0.44451745  0.42953723  1
  H  H19  1  0.19733662  0.25954270  0.40428533  1
  C  C20  1  0.15193358  0.30155672  0.37503192  1
  O  O21  1  0.34336136  0.38071064  0.33755143  1
  H  H22  1  0.28537463  0.39996479  0.35302820  1
  N  N23  1  0.17592740  0.33055172  0.30232106  1
  C  C24  1  0.37418510  0.36215050  0.42849469  1
  C  C25  1  0.22556987  0.10429102  0.34574886  1
  C  C26  1  0.07219029  0.34085265  0.41220938  1
  C  C27  1  0.25288024  0.44997056  0.48159079  1
  O  O28  1  0.42988705  0.31372017  0.42971209  1
  O  O29  1  0.25216067  0.05154422  0.37973832  1
  H  H30  1  0.02179596  0.09908384  0.33160767  1
  C  C31  1  0.01907210  0.32641742  0.49421868  1
  O  O32  1  0.20154043  0.15277986  0.30702167  1
  C  C33  1  0.47848602  0.04431756  0.26317931  1
  H  H34  1  0.41231718  0.31999198  0.58447900  1
  N  N35  1  0.35853072  0.40931614  0.64781048  1
  O  O36  1  0.03959589  0.26740243  0.53549137  1
  O  O37  1  0.10986683  0.14584571  0.60647003  1
  N  N38  1  0.21833975  0.48094869  0.54804440  1
  C  C39  1  0.37603171  0.37545597  0.57743683  1
  O  O40  1  0.14287342  0.07983130  0.71835259  1
  C  C41  1  0.09323760  0.12573883  0.68341185  1
  H  H42  1  0.13509101  0.33520575  0.61174984  1
  O  O43  1  0.48298505  0.06205085  0.64940487  1
  O  O44  1  0.15866608  0.36010648  0.66034948  1
  H  H45  1  0.19134802  0.40218559  0.64243849  1
  C  C46  1  0.01694814  0.16639465  0.73139419  1
  C  C47  1  0.33040274  0.39742642  0.50058522  1
  N  N48  1  0.33266275  0.39398723  0.87861754  1
  C  C49  1  0.35620044  0.17722312  0.92721634  1
  O  O50  1  0.42731273  0.15989774  0.87435575  1
  C  C51  1  0.27617074  0.35104618  0.91768088  1
  H  H52  1  0.24226323  0.30376538  0.88920298  1
  N  N53  1  0.35951631  0.46080920  0.95040629  1
  O  O54  1  0.27397494  0.17824202  0.90224595  1
  H  H55  1  0.06480762  0.29649960  0.90993498  1
  Zn  Zn56  1  0.38807609  0.38007029  0.76773824  1
  O  O57  1  0.08956198  0.26386991  0.86040501  1
  H  H58  1  0.03115904  0.08526873  0.83849105  1
  H  H59  1  0.48119347  0.07512737  0.96783764  1
  H  H60  1  0.03225550  0.23604608  0.84464962  1
  C  C61  1  0.02944245  0.02844119  0.99606315  1
  O  O62  1  0.10223500  0.06329512  0.98081782  1
  Zn  Zn63  1  0.28747301  0.96930125  0.18898765  1
  C  C64  1  0.08547415  0.61339932  0.09079867  1
  N  N65  1  0.11116238  0.56519322  0.13229035  1
  C  C66  1  0.04388176  0.66747670  0.04448869  1
  N  N67  1  0.16183906  0.92725429  0.16175141  1
  H  H68  1  0.32139488  0.67062069  0.04351361  1
  Zn  Zn69  1  0.13679068  0.83233759  0.20818119  1
  H  H70  1  0.20568548  0.82701243  0.08843079  1
  O  O71  1  0.25284843  0.78955409  0.07430036  1
  C  C72  1  0.10987286  0.95693371  0.11512000  1
  C  C73  1  0.02720828  0.96875755  0.06709127  1
  O  O74  1  0.19323422  0.54280331  0.16004749  1
  N  N75  1  0.01966599  0.77022221  0.20691151  1
  O  O76  1  0.48427966  0.93365164  0.06020698  1
  N  N77  1  0.38379299  0.93613761  0.27119485  1
  O  O78  1  0.03726921  0.93602634  0.38042975  1
  O  O79  1  0.10733331  0.58603918  0.41454114  1
  C  C80  1  0.30102814  0.73965160  0.46528341  1
  N  N81  1  0.19916180  0.78836079  0.30420263  1
  Zn  Zn82  1  0.32207123  0.84970941  0.32234956  1
  H  H83  1  0.16884065  0.61248538  0.40487491  1
  C  C84  1  0.02487532  0.72408807  0.25687104  1
  C  C85  1  0.17500916  0.73318837  0.34856268  1
  O  O86  1  0.23654991  0.70043877  0.42208812  1
  C  C87  1  0.45591536  0.97477902  0.29872034  1
  O  O88  1  0.32147428  0.80128181  0.44614809  1
  C  C89  1  0.08643507  0.70098665  0.32281409  1
  C  C90  1  0.04737296  0.63144582  0.36343766  1
  O  O91  1  0.46682236  0.77236065  0.29194830  1
  C  C92  1  0.04237299  0.89769626  0.46492555  1
  H  H93  1  0.49271412  0.95307832  0.35282381  1
  N  N94  1  0.44774521  0.73133775  0.65454808  1
  C  C95  1  0.31327212  0.63187291  0.55897741  1
  H  H96  1  0.48585255  0.93019118  0.71166870  1
  C  C97  1  0.34159867  0.70373124  0.53813573  1
  Zn  Zn98  1  0.41305433  0.64329267  0.71687462  1
  N  N99  1  0.33908889  0.59939969  0.62825497  1
  C  C100  1  0.40242276  0.75204355  0.58539305  1
  H  H101  1  0.43361940  0.80387152  0.56321800  1
  Zn  Zn102  1  0.08463710  0.51753316  0.58182882  1
  H  H103  1  0.26699374  0.59460438  0.51775293  1
  N  N104  1  0.16757242  0.51034306  0.68690881  1
  O  O105  1  0.11288990  0.89943872  0.50769527  1
  Zn  Zn106  1  0.29504963  0.50252446  0.64422887  1
  H  H107  1  0.01061259  0.81761163  0.61577736  1
  Zn  Zn108  1  0.44042716  0.54448240  0.93278662  1
  H  H109  1  0.29071123  0.78135641  0.79403584  1
  C  C110  1  0.29938756  0.74584318  0.93350038  1
  N  N111  1  0.37637863  0.64239110  0.92507186  1
  N  N112  1  0.36556417  0.68588530  0.82889941  1
  C  C113  1  0.31499199  0.74335394  0.84327970  1
  C  C114  1  0.15310492  0.51933206  0.76912356  1
  O  O115  1  0.08120192  0.51429467  0.94394807  1
  O  O116  1  0.23794854  0.86287527  0.95848989  1
  C  C117  1  0.32843799  0.68110219  0.97799027  1
  C  C118  1  0.04406120  0.52423077  0.78880092  1
  O  O119  1  0.03354573  0.77328340  0.90484648  1
  O  O120  1  0.21186923  0.51356531  0.82615776  1
  H  H121  1  0.14178076  0.51850158  0.90725998  1
  C  C122  1  0.02471737  0.73795996  0.96453271  1
  C  C123  1  0.26247386  0.80540295  0.98398776  1
  C  C124  1  0.01142017  0.52200134  0.87970730  1
  O  O125  1  0.55217445  0.46301927  0.07734428  1
  N  N126  1  0.74584956  0.35951953  0.19925257  1
  Zn  Zn127  1  0.58119183  0.26412526  0.19346008  1
  O  O128  1  0.85518091  0.14434893  0.11697188  1
  C  C129  1  0.86774237  0.33284789  0.09241523  1
  C  C130  1  0.76883281  0.31752452  0.12690774  1
  C  C131  1  0.93173652  0.37673163  0.13470175  1
  C  C132  1  0.71923134  0.03059710  0.01419801  1
  O  O133  1  0.71207553  0.27385077  0.09434560  1
  C  C134  1  0.92224162  0.13547412  0.17183831  1
  H  H135  1  0.79825814  0.25275061  0.23854730  1
  C  C136  1  0.90490324  0.30363025  0.01365793  1
  N  N137  1  0.94089566  0.41947566  0.18816313  1
  O  O138  1  0.71072918  0.48643293  0.07383785  1
  C  C139  1  0.63465338  0.45024170  0.05006587  1
  O  O140  1  0.99017248  0.09559411  0.15748230  1
  H  H141  1  0.54183039  0.18138120  0.03329067  1
  O  O142  1  0.66944525  0.34146426  0.24211593  1
  C  C143  1  0.61638875  0.01381977  0.01965051  1
  H  H144  1  0.78241671  0.00106633  0.04212613  1
  Zn  Zn145  1  0.68656986  0.11141022  0.45646390  1
  C  C146  1  0.85119898  0.22490941  0.28183093  1
  C  C147  1  0.97653590  0.14843926  0.32815860  1
  O  O148  1  0.61321441  0.05480998  0.35881101  1
  H  H149  1  0.97650102  0.43481876  0.37729131  1
  C  C150  1  0.56762104  0.08337949  0.29747404  1
  N  N151  1  0.95399964  0.18609633  0.39544658  1
  N  N152  1  0.79748665  0.43194971  0.37890911  1
  Zn  Zn153  1  0.80687156  0.33349432  0.42651371  1
  N  N154  1  0.86449681  0.24746260  0.35898043  1
  C  C155  1  0.76208759  0.48157883  0.41119274  1
  C  C156  1  0.92044394  0.16998110  0.26057806  1
  Zn  Zn157  1  0.82243074  0.44347458  0.25273381  1
  O  O158  1  0.58970832  0.14143213  0.26932646  1
  C  C159  1  0.61527766  0.27291048  0.62399045  1
  O  O160  1  0.74290775  0.45806423  0.64966238  1
  N  N161  1  0.68186674  0.20169106  0.52901316  1
  O  O162  1  0.95765432  0.36524449  0.52526001  1
  C  C163  1  0.66525107  0.32567102  0.57390862  1
  H  H164  1  0.99308315  0.03228868  0.65579358  1
  C  C165  1  0.72311350  0.45282742  0.72660316  1
  H  H166  1  0.95878071  0.26415964  0.65949225  1
  C  C167  1  0.75004829  0.01675333  0.59268515  1
  H  H168  1  0.66253586  0.38709361  0.57667794  1
  C  C169  1  0.96050120  0.22793724  0.71477814  1
  H  H170  1  0.58466146  0.15082539  0.60851586  1
  N  N171  1  0.90402275  0.07745591  0.55810723  1
  N  N172  1  0.77728589  0.06133940  0.53831147  1
  C  C173  1  0.62414235  0.20136624  0.59244873  1
  C  C174  1  0.56128707  0.29007923  0.70322278  1
  O  O175  1  0.53998920  0.35340771  0.72158906  1
  C  C176  1  0.91982830  0.03207517  0.62123246  1
  N  N177  1  0.71263000  0.29346917  0.51279137  1
  Zn  Zn178  1  0.98684765  0.16701776  0.51727532  1
  O  O179  1  0.53210959  0.23578056  0.74232510  1
  O  O180  1  0.54045353  0.08181223  0.52258212  1
  C  C181  1  0.51246544  0.03895692  0.58205757  1
  C  C182  1  0.63984193  0.49766013  0.74813197  1
  C  C183  1  0.73518401  0.38585124  0.94581720  1
  Zn  Zn184  1  0.80228931  0.30758967  0.79537029  1
  Zn  Zn185  1  0.86072762  0.14580382  0.97107511  1
  N  N186  1  0.89939743  0.23264265  0.78049355  1
  H  H187  1  0.63087765  0.45926678  0.88785912  1
  N  N188  1  0.92027046  0.16535417  0.84526575  1
  N  N189  1  0.72446032  0.33281773  0.89385513  1
  N  N190  1  0.61610313  0.11661568  0.94862734  1
  O  O191  1  0.95156720  0.03732729  0.95475360  1
  H  H192  1  0.79433262  0.42602420  0.94297971  1
  N  N193  1  0.73183818  0.09041317  0.98147602  1
  Zn  Zn194  1  0.56953386  0.19932358  0.87420118  1
  C  C195  1  0.55921963  0.06937534  0.98117502  1
  N  N196  1  0.61624522  0.29358751  0.91373681  1
  C  C197  1  0.64550941  0.38954126  0.99053936  1
  O  O198  1  0.85652767  0.25551242  0.96995336  1
  C  C199  1  0.57477932  0.33277718  0.96998664  1
  O  O200  1  0.77533241  0.41400688  0.77608604  1
  O  O201  1  0.98763075  0.32341432  0.99214683  1
  C  C202  1  0.60549673  0.49614387  0.83481840  1
  H  H203  1  0.50255840  0.31909669  0.99759760  1
  C  C204  1  0.99281403  0.13011459  0.80802338  1
  N  N205  1  0.89966077  0.87309259  0.07479484  1
  Zn  Zn206  1  0.75723681  0.58338360  0.11848743  1
  N  N207  1  0.77370318  0.75861238  0.17747829  1
  N  N208  1  0.70637075  0.68266090  0.16323743  1
  Zn  Zn209  1  0.90941209  0.77611350  0.13059687  1
  C  C210  1  0.95456816  0.91959774  0.06631286  1
  C  C211  1  0.62291559  0.69606826  0.20128399  1
  C  C212  1  0.71824053  0.79867032  0.22158655  1
  H  H213  1  0.56472660  0.65317499  0.19704347  1
  N  N214  1  0.97849431  0.71678317  0.03342525  1
  N  N215  1  0.76690791  0.54322670  0.24336365  1
  O  O216  1  0.64347559  0.89687060  0.07255859  1
  C  C217  1  0.62861129  0.76442209  0.24190060  1
  H  H218  1  0.74018761  0.85482729  0.24120148  1
  H  H219  1  0.60023655  0.86387433  0.10238996  1
  C  C220  1  0.56702535  0.95001192  0.05227542  1
  O  O221  1  0.69051950  0.67295999  0.42482920  1
  H  H222  1  0.71775384  0.63421534  0.29297236  1
  C  C223  1  0.73999037  0.57968188  0.30991024  1
  C  C224  1  0.73542539  0.55221857  0.39453962  1
  C  C225  1  0.71064838  0.61397597  0.45453247  1
  C  C226  1  0.96776934  0.93458788  0.33568672  1
  H  H227  1  0.84973916  0.86799269  0.37103798  1
  H  H228  1  0.59512889  0.95237368  0.44298690  1
  C  C229  1  0.55127280  0.79165890  0.29936400  1
  C  C230  1  0.87211812  0.84742747  0.43720177  1
  O  O231  1  0.89902036  0.93170630  0.29323112  1
  O  O232  1  0.57850650  0.83324452  0.35911749  1
  Zn  Zn233  1  0.66986406  0.78955778  0.44992890  1
  C  C234  1  0.95877118  0.85559299  0.48603995  1
  N  N235  1  0.81096688  0.81353501  0.48153488  1
  O  O236  1  0.96512545  0.61495515  0.35151254  1
  N  N237  1  0.59858338  0.86332511  0.52660748  1
  H  H238  1  0.59165673  0.55650314  0.62636502  1
  O  O239  1  0.94936036  0.54289315  0.55921381  1
  C  C240  1  0.95264318  0.82024777  0.56860460  1
  Zn  Zn241  1  0.81800537  0.74526663  0.67978308  1
  O  O242  1  0.70624998  0.60294476  0.53433949  1
  N  N243  1  0.55621973  0.85647190  0.63447837  1
  Zn  Zn244  1  0.80750718  0.55125871  0.60623155  1
  C  C245  1  0.58303146  0.54271435  0.69543940  1
  Zn  Zn246  1  0.55799294  0.77567816  0.70993735  1
  C  C247  1  0.82272021  0.95537740  0.72637066  1
  C  C248  1  0.97836486  0.52959267  0.72456554  1
  N  N249  1  0.93513596  0.53333598  0.66156339  1
  N  N250  1  0.86766537  0.79451836  0.58362436  1
  C  C251  1  0.51638121  0.91620563  0.65160517  1
  C  C252  1  0.53206773  0.96154167  0.57846968  1
  N  N253  1  0.51932378  0.57313689  0.74082412  1
  C  C254  1  0.82910599  0.99965010  0.64869240  1
  H  H255  1  0.67338044  0.99765178  0.59889465  1
  N  N256  1  0.68955195  0.73352634  0.74091781  1
  H  H257  1  0.96344607  0.70688874  0.74557136  1
  C  C258  1  0.57539225  0.92934492  0.50677391  1
  H  H259  1  0.88483344  0.93514254  0.82684078  1
  N  N260  1  0.89786969  0.70262878  0.77331800  1
  C  C261  1  0.73445877  0.63904456  0.94529629  1
  N  N262  1  0.53030333  0.53773563  0.84058798  1
  C  C263  1  0.76361783  0.66937641  0.85798702  1
  C  C264  1  0.69770573  0.70503799  0.80681566  1
  O  O265  1  0.64924232  0.63425826  0.95984091  1
  C  C266  1  0.86355386  0.66685170  0.83814684  1
  H  H267  1  0.91735485  0.64206868  0.88278130  1
  O  O268  1  0.92853047  0.51721821  0.90081742  1
  O  O269  1  0.91281523  0.94309089  0.76990178  1
  O  O270  1  0.79894297  0.61709556  0.99496465  1
  O  O271  1  0.74835544  0.93178546  0.75402604  1
