# generated using pymatgen
data_Zn3H10C23O13
_symmetry_space_group_name_H-M   'P 1'
_cell_length_a   7.04412282
_cell_length_b   33.01339018
_cell_length_c   11.49179520
_cell_angle_alpha   90.00000000
_cell_angle_beta   90.00000000
_cell_angle_gamma   90.00000000
_symmetry_Int_Tables_number   1
_chemical_formula_structural   Zn3H10C23O13
_chemical_formula_sum   'Zn12 H40 C92 O52'
_cell_volume   2672.42128591
_cell_formula_units_Z   4
loop_
 _symmetry_equiv_pos_site_id
 _symmetry_equiv_pos_as_xyz
  1  'x, y, z'
loop_
 _atom_site_type_symbol
 _atom_site_label
 _atom_site_symmetry_multiplicity
 _atom_site_fract_x
 _atom_site_fract_y
 _atom_site_fract_z
 _atom_site_occupancy
  C  C0  1  0.04844316  0.17472165  0.22614486  1
  C  C1  1  0.13451399  0.10738874  0.15395472  1
  H  H2  1  0.07842193  0.12296929  0.33556902  1
  O  O3  1  0.18173169  0.06508375  0.17174313  1
  C  C4  1  0.07073307  0.19345985  0.11846540  1
  C  C5  1  0.08443843  0.13408775  0.24375518  1
  C  C6  1  0.08678499  0.00298560  0.26904276  1
  C  C7  1  0.12686244  0.16750191  0.02521645  1
  C  C8  1  0.14261248  0.12594108  0.04534370  1
  H  H9  1  0.04872675  0.22493368  0.10746639  1
  C  C10  1  0.05741216  0.04330260  0.23843250  1
  O  O11  1  0.42904890  0.24554984  0.45967019  1
  C  C12  1  0.48134725  0.17656256  0.40110843  1
  H  H13  1  0.48548018  0.22223352  0.26707066  1
  C  C14  1  0.45676446  0.20957779  0.48963076  1
  O  O15  1  0.11826443  0.22459501  0.89581883  1
  Zn  Zn16  1  0.35611809  0.23500242  0.73271302  1
  O  O17  1  0.24545760  0.17019548  0.82759684  1
  C  C18  1  0.16407876  0.18851691  0.90980235  1
  H  H19  1  0.37919140  0.00651464  0.84105469  1
  H  H20  1  0.19338716  0.10621920  0.97197404  1
  O  O21  1  0.46147035  0.19908792  0.59444193  1
  H  H22  1  0.49256346  0.12453043  0.52381083  1
  O  O23  1  0.49231738  0.08086501  0.82086272  1
  C  C24  1  0.27808477  0.33408113  0.20942516  1
  C  C25  1  0.35055140  0.34950927  0.09016641  1
  Zn  Zn26  1  0.18401713  0.27479208  0.39027545  1
  O  O27  1  0.17881718  0.35544862  0.27309927  1
  H  H28  1  0.28109671  0.40598969  0.14516559  1
  C  C29  1  0.34325379  0.39072359  0.07243729  1
  O  O30  1  0.31633968  0.29817399  0.23698841  1
  H  H31  1  0.41975092  0.47292199  0.49453208  1
  H  H32  1  0.42211982  0.29079983  0.02169242  1
  C  C33  1  0.42318484  0.32306574  0.00734268  1
  O  O34  1  0.15799536  0.26665033  0.64433388  1
  O  O35  1  0.27035310  0.31821270  0.54477713  1
  C  C36  1  0.40290750  0.40857305  0.96810798  1
  C  C37  1  0.18341535  0.30515767  0.63512683  1
  C  C38  1  0.09353871  0.37406653  0.69793428  1
  H  H39  1  0.13271153  0.38696811  0.61513460  1
  C  C40  1  0.04193376  0.31633936  0.83280701  1
  C  C41  1  0.10116154  0.33254990  0.72783355  1
  O  O42  1  0.00427064  0.44419841  0.74189260  1
  O  O43  1  0.39220613  0.45054065  0.94349249  1
  C  C44  1  0.03335075  0.40116914  0.78284466  1
  C  C45  1  0.48018702  0.38068786  0.88716384  1
  C  C46  1  0.48821503  0.33885437  0.90157952  1
  H  H47  1  0.03760679  0.28304244  0.84686338  1
  C  C48  1  0.43361163  0.65345452  0.30177452  1
  C  C49  1  0.08321679  0.60510361  0.15445106  1
  C  C50  1  0.05732087  0.64710574  0.14953544  1
  C  C51  1  0.38419271  0.59551803  0.43527810  1
  O  O52  1  0.40065195  0.55430960  0.47328742  1
  H  H53  1  0.33535706  0.71298054  0.35830553  1
  C  C54  1  0.35039512  0.68122283  0.37824772  1
  C  C55  1  0.44240132  0.61314072  0.32667149  1
  C  C56  1  0.11306749  0.66765066  0.03625258  1
  H  H57  1  0.16198634  0.58814680  0.08724142  1
  O  O58  1  0.06837195  0.70435406  0.02411322  1
  C  C59  1  0.28897882  0.66380975  0.48234231  1
  H  H60  1  0.49868871  0.59416204  0.25611491  1
  C  C61  1  0.00278429  0.58391118  0.24872837  1
  C  C62  1  0.22704575  0.69556086  0.56763321  1
  O  O63  1  0.24116748  0.73149729  0.54216824  1
  H  H64  1  0.39940330  0.52775665  0.88347328  1
  O  O65  1  0.15444639  0.68185902  0.66012210  1
  H  H66  1  0.26378540  0.61136574  0.60476040  1
  O  O67  1  0.18937513  0.64789857  0.95790633  1
  Zn  Zn68  1  0.49152983  0.64073611  0.92051090  1
  C  C69  1  0.30819818  0.62298290  0.51229343  1
  C  C70  1  0.02146440  0.90540281  0.03521679  1
  Zn  Zn71  1  0.21647543  0.86949895  0.38789590  1
  C  C72  1  0.48638190  0.83401794  0.08799856  1
  O  O73  1  0.16355566  0.92945175  0.36533473  1
  O  O74  1  0.47030279  0.86005860  0.27041882  1
  H  H75  1  0.43590513  0.82123191  0.43051115  1
  H  H76  1  0.21494007  0.98561285  0.23923763  1
  H  H77  1  0.37727483  0.89365009  0.11098833  1
  C  C78  1  0.00040721  0.94390741  0.39788339  1
  H  H79  1  0.02195103  0.78698908  0.04408524  1
  C  C80  1  0.43305717  0.87288402  0.04653541  1
  O  O81  1  0.01556246  0.95144375  0.03452549  1
  C  C82  1  0.00337105  0.88502457  0.14033040  1
  C  C83  1  0.01221310  0.81923443  0.04048645  1
  C  C84  1  0.49722966  0.82755740  0.21408238  1
  O  O85  1  0.35867916  0.83210869  0.48969328  1
  O  O86  1  0.09617731  0.82721056  0.72928967  1
  C  C87  1  0.43666625  0.88095910  0.92817249  1
  Zn  Zn88  1  0.27185601  0.79004474  0.61945743  1
  O  O89  1  0.39253905  0.92572682  0.89072905  1
  H  H90  1  0.05509090  0.89514002  0.84602309  1
  C  C91  1  0.47203143  0.85101671  0.85072919  1
  O  O92  1  0.09441904  0.77466282  0.84187646  1
  C  C93  1  0.03849689  0.83904179  0.93518986  1
  H  H94  1  0.46659036  0.85803506  0.75752532  1
  C  C95  1  0.02837125  0.88269189  0.93586514  1
  C  C96  1  0.07625042  0.81277121  0.83072472  1
  C  C97  1  0.50559678  0.18929433  0.28729285  1
  O  O98  1  0.96588630  0.23389469  0.33272717  1
  C  C99  1  0.88656557  0.06062190  0.27621622  1
  C  C100  1  0.59084932  0.17502820  0.08367556  1
  C  C101  1  0.54647586  0.16056715  0.20217236  1
  C  C102  1  0.74458609  0.04326737  0.34676363  1
  C  C103  1  0.54489837  0.11912075  0.23468876  1
  O  O104  1  0.58184883  0.06201651  0.38749577  1
  H  H105  1  0.56393482  0.09597859  0.16573568  1
  H  H106  1  0.84125954  0.09188933  0.25647065  1
  C  C107  1  0.54178129  0.10464115  0.35010818  1
  O  O108  1  0.57717047  0.21159802  0.05837407  1
  C  C109  1  0.78464109  0.00353232  0.37571993  1
  C  C110  1  0.51001705  0.13489250  0.43511269  1
  C  C111  1  0.99659938  0.19744051  0.34595348  1
  O  O112  1  0.62177283  0.14688685  0.01329319  1
  O  O113  1  0.98608191  0.18090877  0.43948773  1
  C  C114  1  0.66325508  0.02118630  0.90020283  1
  H  H115  1  0.85522406  0.18981890  0.81550458  1
  C  C116  1  0.64767522  0.06430313  0.85117851  1
  O  O117  1  0.73383816  0.19795864  0.82405369  1
  Zn  Zn118  1  0.56155056  0.14817953  0.82332606  1
  O  O119  1  0.79686486  0.08375300  0.85399375  1
  Zn  Zn120  1  0.79706196  0.23890552  0.93870198  1
  H  H121  1  0.95954894  0.02540070  0.95763527  1
  C  C122  1  0.83025013  0.00697017  0.94842863  1
  H  H123  1  0.94883126  0.46344405  0.30852346  1
  Zn  Zn124  1  0.87515137  0.34488246  0.29289841  1
  C  C125  1  0.83415772  0.48180570  0.33720941  1
  O  O126  1  0.71636557  0.31889017  0.41469139  1
  O  O127  1  0.83472026  0.40219738  0.37311988  1
  C  C128  1  0.68600212  0.46446105  0.39898667  1
  C  C129  1  0.69378037  0.41913229  0.41469975  1
  O  O130  1  0.86201946  0.35149281  0.10763213  1
  C  C131  1  0.53702722  0.48765410  0.44429581  1
  O  O132  1  0.85344051  0.28941146  0.04323608  1
  H  H133  1  0.65364570  0.29780515  0.37313058  1
  O  O134  1  0.55084437  0.40024036  0.45166637  1
  C  C135  1  0.89538515  0.32504071  0.02883531  1
  O  O136  1  0.65360380  0.32943481  0.72280514  1
  C  C137  1  0.85773091  0.46657506  0.77939774  1
  H  H138  1  0.71967927  0.41982644  0.87800699  1
  C  C139  1  0.71278792  0.45220083  0.85138514  1
  H  H140  1  0.95247759  0.40436305  0.96587402  1
  Zn  Zn141  1  0.55800501  0.34080169  0.54479388  1
  C  C142  1  0.56370567  0.31405091  0.80383619  1
  C  C143  1  0.54340837  0.47091246  0.88534374  1
  O  O144  1  0.56646021  0.27576814  0.82330446  1
  C  C145  1  0.98599791  0.38400780  0.89099593  1
  C  C146  1  0.96949865  0.34264709  0.91613391  1
  H  H147  1  0.50825683  0.39337646  0.80016055  1
  C  C148  1  0.91816418  0.64996932  0.33755258  1
  H  H149  1  0.86946962  0.59264213  0.42162915  1
  C  C150  1  0.83894069  0.52302583  0.30955648  1
  H  H151  1  0.68586595  0.57853655  0.35575407  1
  C  C152  1  0.68875261  0.54445654  0.35900094  1
  C  C153  1  0.92612022  0.60834549  0.33877944  1
  O  O154  1  0.77616551  0.70916037  0.41958995  1
  H  H155  1  0.94716777  0.70237005  0.21876586  1
  C  C156  1  0.51053508  0.66791631  0.18640076  1
  C  C157  1  0.82356043  0.67347593  0.43669252  1
  C  C158  1  0.97372790  0.67003275  0.23621668  1
  O  O159  1  0.54153970  0.64204223  0.10620552  1
  O  O160  1  0.52850006  0.70407417  0.16942092  1
  C  C161  1  0.53398812  0.52962938  0.42437617  1
  O  O162  1  0.99379429  0.54105714  0.25588088  1
  Zn  Zn163  1  0.71981127  0.74908256  0.26641761  1
  C  C164  1  0.67185136  0.52971063  0.79152523  1
  O  O165  1  0.74904369  0.66776971  0.85117404  1
  C  C166  1  0.66324600  0.57449666  0.77006044  1
  H  H167  1  0.84643605  0.66758225  0.91499013  1
  C  C168  1  0.82515625  0.50803226  0.74892227  1
  Zn  Zn169  1  0.89114407  0.65073056  0.69239849  1
  O  O170  1  0.80168156  0.59065587  0.72481197  1
  Zn  Zn171  1  0.87359636  0.73128311  0.90676405  1
  H  H172  1  0.92178315  0.52196615  0.68674562  1
  C  C173  1  0.52696104  0.51142878  0.85722619  1
  O  O174  1  0.61703211  0.74703346  0.83610690  1
  O  O175  1  0.76613060  0.65705641  0.52510226  1
  O  O176  1  0.51303367  0.59381500  0.80193015  1
  O  O177  1  0.97338371  0.77655658  0.24348572  1
  O  O178  1  0.90547094  0.92833587  0.47425987  1
  C  C179  1  0.97555862  0.81566492  0.24797406  1
  C  C180  1  0.51605101  0.80064019  0.01506056  1
  C  C181  1  0.95444476  0.98370231  0.33938569  1
  H  H182  1  0.68660078  0.98616269  0.42922880  1
  O  O183  1  0.97626299  0.83251077  0.34513961  1
  H  H184  1  0.51330349  0.76913813  0.04684972  1
  O  O185  1  0.52052959  0.79343611  0.26486271  1
  C  C186  1  0.99530296  0.84187650  0.14272012  1
  H  H187  1  0.99083960  0.90280142  0.22004524  1
  C  C188  1  0.69640233  0.94176616  0.97070650  1
  H  H189  1  0.71485356  0.90882171  0.99415455  1
  C  C190  1  0.85197805  0.96712778  0.98893671  1
  C  C191  1  0.55369521  0.78094429  0.80302684  1
  C  C192  1  0.52812126  0.95337962  0.91608135  1
  C  C193  1  0.51176191  0.99426268  0.88106709  1
  O  O194  1  0.54879384  0.79012107  0.69729627  1
  C  C195  1  0.51283256  0.81126663  0.89606520  1
