# generated using pymatgen
data_CuH8C14O5
_symmetry_space_group_name_H-M   'P 1'
_cell_length_a   14.17593910
_cell_length_b   12.57099075
_cell_length_c   42.11782235
_cell_angle_alpha   90.00000000
_cell_angle_beta   90.00000000
_cell_angle_gamma   90.00000000
_symmetry_Int_Tables_number   1
_chemical_formula_structural   CuH8C14O5
_chemical_formula_sum   'Cu18 H144 C252 O90'
_cell_volume   7505.63177309
_cell_formula_units_Z   18
loop_
 _symmetry_equiv_pos_site_id
 _symmetry_equiv_pos_as_xyz
  1  'x, y, z'
loop_
 _atom_site_type_symbol
 _atom_site_label
 _atom_site_symmetry_multiplicity
 _atom_site_fract_x
 _atom_site_fract_y
 _atom_site_fract_z
 _atom_site_occupancy
  H  H0  1  0.07589980  0.06206232  0.19372490  1
  C  C1  1  0.45510685  0.20015445  0.06651206  1
  O  O2  1  0.39469230  0.19906593  0.08686582  1
  C  C3  1  0.01110042  0.24731139  0.22087912  1
  O  O4  1  0.00268564  0.31372148  0.24519413  1
  O  O5  1  0.42854581  0.18434065  0.03747786  1
  Cu  Cu6  1  0.36751485  0.40548698  0.03252925  1
  O  O7  1  0.23384152  0.06515400  0.03666190  1
  O  O8  1  0.46015376  0.44591811  0.06247197  1
  O  O9  1  0.02948065  0.27435076  0.19495443  1
  C  C10  1  0.03598749  0.05227265  0.21542927  1
  Cu  Cu11  1  0.44090153  0.05562696  0.01889087  1
  O  O12  1  0.02940372  0.11971625  0.00002193  1
  C  C13  1  0.23810937  0.45876842  0.31183451  1
  O  O14  1  0.20836001  0.46139787  0.34020845  1
  O  O15  1  0.21958803  0.38217926  0.29427076  1
  Cu  Cu16  1  0.10762985  0.35623475  0.26974317  1
  O  O17  1  0.02985118  0.36370957  0.34692553  1
  H  H18  1  0.37239244  0.04844572  0.39673492  1
  O  O19  1  0.06690038  0.49818603  0.26602840  1
  C  C20  1  0.08711265  0.38452063  0.46771914  1
  C  C21  1  0.02257697  0.34399323  0.40282996  1
  C  C22  1  0.11103253  0.40212337  0.40760600  1
  C  C23  1  0.12352405  0.41211118  0.43996425  1
  H  H24  1  0.15757227  0.44157761  0.39002350  1
  H  H25  1  0.11235064  0.40499788  0.49140194  1
  O  O26  1  0.00284956  0.08688677  0.43544192  1
  H  H27  1  0.49166162  0.46226195  0.28941136  1
  C  C28  1  0.00256130  0.32291315  0.46003513  1
  H  H29  1  0.25872979  0.00694985  0.41165429  1
  H  H30  1  0.33480651  0.44532367  0.25662711  1
  O  O31  1  0.46763193  0.34769209  0.68573643  1
  O  O32  1  0.28219429  0.10829426  0.65346202  1
  C  C33  1  0.47716620  0.21467587  0.56476069  1
  C  C34  1  0.29638772  0.10936569  0.68358578  1
  Cu  Cu35  1  0.33625409  0.31943121  0.67887215  1
  O  O36  1  0.31286304  0.22465362  0.55048566  1
  Cu  Cu37  1  0.27684197  0.22718676  0.62917264  1
  C  C38  1  0.26306131  0.02432976  0.70396600  1
  O  O39  1  0.33609144  0.18666056  0.69662072  1
  H  H40  1  0.44857740  0.31451446  0.51978616  1
  O  O41  1  0.35776903  0.16324067  0.59720758  1
  C  C42  1  0.37307602  0.20158863  0.56853504  1
  O  O43  1  0.27030892  0.35661619  0.61210531  1
  O  O44  1  0.08552585  0.36598146  0.68421524  1
  C  C45  1  0.00577288  0.34991879  0.73061902  1
  C  C46  1  0.08673932  0.38987743  0.71159944  1
  C  C47  1  0.28300442  0.03211321  0.73662270  1
  O  O48  1  0.15998926  0.44003020  0.72470856  1
  C  C49  1  0.49966060  0.27506631  0.53717031  1
  C  C50  1  0.29263574  0.44350665  0.62678373  1
  H  H51  1  0.26502742  0.46867490  0.56474652  1
  O  O52  1  0.30853019  0.44472752  0.65649924  1
  H  H53  1  0.32482179  0.09744516  0.74423346  1
  H  H54  1  0.25868758  0.47073630  0.84257369  1
  C  C55  1  0.12680379  0.14705603  0.95512248  1
  C  C56  1  0.12683703  0.14076216  0.92199736  1
  C  C57  1  0.31083247  0.34706751  0.97033985  1
  O  O58  1  0.37391294  0.40387147  0.95656993  1
  H  H59  1  0.04841436  0.08388297  0.82043915  1
  H  H60  1  0.08006435  0.08690078  0.90846165  1
  C  C61  1  0.12151782  0.24543559  0.80596205  1
  C  C62  1  0.06438803  0.23549832  0.86104961  1
  H  H63  1  0.30542265  0.32644434  0.90759281  1
  C  C64  1  0.20927354  0.21428081  0.81676426  1
  H  H65  1  0.10427521  0.24531595  0.77960383  1
  O  O66  1  0.32958877  0.18398276  0.85793499  1
  C  C67  1  0.25276731  0.27864306  0.91970852  1
  C  C68  1  0.18043253  0.21784685  0.90492902  1
  C  C69  1  0.16195249  0.22037083  0.86945785  1
  C  C70  1  0.06046690  0.07206599  0.97384510  1
  C  C71  1  0.24994814  0.27673269  0.95358493  1
  C  C72  1  0.23804078  0.20400071  0.84869061  1
  H  H73  1  0.47235482  0.14759737  0.84564874  1
  H  H74  1  0.26085803  0.19124697  0.79976622  1
  O  O75  1  0.17862094  0.48040757  0.88450204  1
  H  H76  1  0.07201029  0.38675494  0.77461537  1
  C  C77  1  0.18194854  0.21998561  0.97090209  1
  H  H78  1  0.37859442  0.10760415  0.81970046  1
  H  H79  1  0.06630996  0.39874766  0.92046005  1
  H  H80  1  0.41944639  0.24388367  0.82132551  1
  C  C81  1  0.40246080  0.17424266  0.83508898  1
  C  C82  1  0.44961249  0.43214487  0.88516287  1
  C  C83  1  0.04384228  0.25754623  0.82688746  1
  C  C84  1  0.37339318  0.46275186  0.87519002  1
  C  C85  1  0.00403327  0.44280683  0.91126755  1
  C  C86  1  0.00897870  0.35552854  0.76346360  1
  H  H87  1  0.18638483  0.21217494  0.99679896  1
  O  O88  1  0.29336747  0.35970214  0.99972707  1
  C  C89  1  0.49023285  0.63742772  0.17364346  1
  C  C90  1  0.12802793  0.79915478  0.21199562  1
  C  C91  1  0.49923612  0.61256894  0.10060591  1
  H  H92  1  0.13707113  0.98378864  0.07376466  1
  C  C93  1  0.22549814  0.69603263  0.06056435  1
  C  C94  1  0.14892905  0.70919110  0.08118478  1
  C  C95  1  0.02951373  0.89996399  0.17128553  1
  C  C96  1  0.16632800  0.74743820  0.18524392  1
  C  C97  1  0.40146337  0.75005027  0.21255697  1
  H  H98  1  0.22066184  0.68660330  0.19109273  1
  H  H99  1  0.32052720  0.76980959  0.02549117  1
  C  C100  1  0.22654841  0.87940356  0.04801216  1
  H  H101  1  0.11537231  0.64100535  0.09293964  1
  H  H102  1  0.37508634  0.76212325  0.23717387  1
  C  C103  1  0.14771107  0.76435997  0.15338996  1
  H  H104  1  0.18743019  0.71598616  0.13607200  1
  C  C105  1  0.41065439  0.80687002  0.15532294  1
  C  C106  1  0.26728664  0.97837485  0.03238089  1
  C  C107  1  0.07912031  0.84151587  0.14512488  1
  C  C108  1  0.12258044  0.81417723  0.08753275  1
  H  H109  1  0.31397296  0.91786399  0.08868360  1
  O  O110  1  0.34467991  0.97091196  0.01511847  1
  C  C111  1  0.15618279  0.90236778  0.06974549  1
  C  C112  1  0.26475928  0.77816528  0.04310558  1
  C  C113  1  0.47100712  0.57247912  0.22958136  1
  O  O114  1  0.37001516  0.89055798  0.13227735  1
  H  H115  1  0.46837399  0.54258540  0.11050442  1
  C  C116  1  0.06070946  0.86840866  0.11272295  1
  H  H117  1  0.33108176  0.88684935  0.19133639  1
  C  C118  1  0.45502459  0.65748653  0.20577244  1
  C  C119  1  0.06342119  0.87944623  0.20284491  1
  C  C120  1  0.37665170  0.81545071  0.18630300  1
  C  C121  1  0.46626274  0.71927925  0.14940709  1
  C  C122  1  0.35204029  0.85869207  0.10254228  1
  O  O123  1  0.31664262  0.54550816  0.03731783  1
  C  C124  1  0.24785928  0.58136994  0.05661367  1
  H  H125  1  0.30112817  0.78931523  0.10354893  1
  H  H126  1  0.41833335  0.83227976  0.09066788  1
  C  C127  1  0.02092497  0.94833628  0.22842595  1
  O  O128  1  0.15018461  0.78652470  0.24361176  1
  H  H129  1  0.16987573  0.62253502  0.23982890  1
  O  O130  1  0.20742776  0.51755622  0.07251625  1
  C  C131  1  0.21027400  0.69847552  0.24852247  1
  H  H132  1  0.27884485  0.69018158  0.23717581  1
  C  C133  1  0.44663474  0.67671063  0.28005607  1
  H  H134  1  0.49784706  0.74050979  0.27120131  1
  H  H135  1  0.34817579  0.64417621  0.47446418  1
  C  C136  1  0.24086975  0.82160010  0.45213428  1
  O  O137  1  0.37482135  0.79801394  0.35159897  1
  C  C138  1  0.33657947  0.62073312  0.32004596  1
  C  C139  1  0.39850762  0.61170976  0.45544623  1
  C  C140  1  0.18611476  0.84203729  0.42095030  1
  C  C141  1  0.17223982  0.77234052  0.39463778  1
  C  C142  1  0.40558295  0.69102140  0.30977915  1
  C  C143  1  0.32503206  0.87659181  0.45505882  1
  C  C144  1  0.31319405  0.53292793  0.30101768  1
  C  C145  1  0.37237520  0.85231430  0.48324344  1
  H  H146  1  0.21014338  0.69727643  0.39305169  1
  C  C147  1  0.41926716  0.59033892  0.26113258  1
  O  O148  1  0.37258780  0.94398056  0.43410126  1
  C  C149  1  0.12491451  0.92643279  0.42500639  1
  C  C150  1  0.20168104  0.74746691  0.47435889  1
  C  C151  1  0.09393190  0.74051341  0.34430228  1
  H  H152  1  0.39356441  0.52327771  0.45611279  1
  H  H153  1  0.32257574  0.90833663  0.38820445  1
  H  H154  1  0.08210695  0.70005110  0.44608086  1
  C  C155  1  0.11673407  0.68929916  0.46887292  1
  C  C156  1  0.11138715  0.80898112  0.37156109  1
  H  H157  1  0.22212771  0.68605298  0.27496350  1
  Cu  Cu158  1  0.07739825  0.51014093  0.33975643  1
  C  C159  1  0.35610276  0.51461174  0.27162824  1
  H  H160  1  0.29401361  0.63615970  0.34279450  1
  H  H161  1  0.11922060  0.97146767  0.44797465  1
  C  C162  1  0.42849589  0.78447839  0.33014925  1
  O  O163  1  0.02831942  0.77433690  0.32585438  1
  C  C164  1  0.33107818  0.97687397  0.40657696  1
  O  O165  1  0.48926168  0.65929858  0.45931758  1
  O  O166  1  0.12837895  0.64988912  0.33988675  1
  H  H167  1  0.37400025  0.63765492  0.43115622  1
  C  C168  1  0.05502259  0.90191671  0.37238815  1
  H  H169  1  0.00387727  0.59981157  0.49316830  1
  H  H170  1  0.44451777  0.88168804  0.48875640  1
  C  C171  1  0.07672510  0.63208933  0.49452436  1
  C  C172  1  0.05826097  0.95496070  0.40167133  1
  C  C173  1  0.21170728  0.65925167  0.52928136  1
  C  C174  1  0.33736406  0.78685797  0.50791025  1
  C  C175  1  0.12138529  0.61997392  0.52323168  1
  C  C176  1  0.26362648  0.73991104  0.57914928  1
  H  H177  1  0.32084528  0.64135805  0.64986914  1
  H  H178  1  0.09993151  0.62842030  0.58842856  1
  C  C179  1  0.13008991  0.76825598  0.69895819  1
  O  O180  1  0.30191297  0.84312892  0.62981495  1
  O  O181  1  0.44960039  0.74278193  0.66359516  1
  O  O182  1  0.10887363  0.68880164  0.71931455  1
  C  C183  1  0.21013295  0.93806363  0.69049416  1
  H  H184  1  0.18745274  0.93548900  0.66615258  1
  C  C185  1  0.25079612  0.64404380  0.56245315  1
  H  H186  1  0.34227239  0.77917836  0.73336526  1
  C  C187  1  0.29016799  0.73492346  0.61059058  1
  C  C188  1  0.25137795  0.72989623  0.50468784  1
  C  C189  1  0.18538029  0.86227468  0.71178938  1
  Cu  Cu190  1  0.37518254  0.87129247  0.66634017  1
  C  C191  1  0.28775490  0.54104143  0.60873104  1
  O  O192  1  0.12033507  0.76034024  0.67147357  1
  C  C193  1  0.26753382  0.54488964  0.57745200  1
  H  H194  1  0.25006929  0.88467443  0.61810014  1
  C  C195  1  0.30582959  0.64146679  0.62455554  1
  H  H196  1  0.25293344  0.81711756  0.56729520  1
  O  O197  1  0.44390676  0.92777384  0.70110299  1
  H  H198  1  0.38668953  0.77501303  0.52819638  1
  O  O199  1  0.06023078  0.55068387  0.54786859  1
  C  C200  1  0.05954765  0.56717066  0.57526375  1
  Cu  Cu201  1  0.18176715  0.57614703  0.72915368  1
  H  H202  1  0.47034704  0.54013821  0.67411075  1
  H  H203  1  0.48016167  0.51267636  0.56026566  1
  C  C204  1  0.40980181  0.75630832  0.74459010  1
  C  C205  1  0.49818071  0.80105305  0.73587990  1
  C  C206  1  0.20167707  0.86381481  0.74502218  1
  H  H207  1  0.41167346  0.58412627  0.51545253  1
  C  C208  1  0.49047314  0.58246631  0.51414640  1
  O  O209  1  0.33440654  0.53001282  0.79037477  1
  O  O210  1  0.12054377  0.59429861  0.84949274  1
  H  H211  1  0.13899749  0.95255571  0.86277810  1
  H  H212  1  0.40062795  0.80091161  0.88666405  1
  C  C213  1  0.36849141  0.95158149  0.84220662  1
  O  O214  1  0.40308647  0.72703874  0.97765328  1
  C  C215  1  0.41137472  0.67674664  0.76623591  1
  H  H216  1  0.16943006  0.81156081  0.76216635  1
  C  C217  1  0.43055367  0.86096969  0.90313001  1
  C  C218  1  0.43693768  0.84131349  0.93488659  1
  C  C219  1  0.18385845  0.95071473  0.81253858  1
  Cu  Cu220  1  0.36777968  0.53580707  0.93987275  1
  C  C221  1  0.39494868  0.74209840  0.94776868  1
  H  H222  1  0.28951115  0.96582173  0.88623098  1
  H  H223  1  0.27698282  0.59177742  0.86636061  1
  C  C224  1  0.28328476  0.95941128  0.86035961  1
  C  C225  1  0.26516409  0.95026983  0.79315948  1
  C  C226  1  0.19640840  0.95603192  0.84565400  1
  O  O227  1  0.35996470  0.67483755  0.93024637  1
  O  O228  1  0.09156053  0.95187599  0.79853487  1
  C  C229  1  0.35532798  0.95280907  0.80846411  1
  C  C230  1  0.02392269  0.99883354  0.81695549  1
  C  C231  1  0.25448871  0.95182400  0.75725450  1
  H  H232  1  0.01384805  0.95765471  0.84056914  1
  C  C233  1  0.32846688  0.60727164  0.77354178  1
  C  C234  1  0.46868437  0.95719487  0.89034467  1
  Cu  Cu235  1  0.43629325  0.60255098  0.99448068  1
  H  H236  1  0.42523518  0.95037275  0.76258744  1
  H  H237  1  0.49090623  0.56652447  0.79593068  1
  O  O238  1  0.02602806  0.99632100  0.96305036  1
  C  C239  1  0.10874201  0.53180518  0.86988959  1
  C  C240  1  0.43350309  0.95627726  0.78845486  1
  C  C241  1  0.46285690  0.96589988  0.85505085  1
  C  C242  1  0.28023717  0.50260999  0.86704187  1
  C  C243  1  0.47607681  0.91319373  0.95659268  1
  H  H244  1  0.47681214  0.90026681  0.98240536  1
  C  C245  1  0.49185971  0.63212980  0.78000918  1
  C  C246  1  0.01388024  0.50571024  0.88489323  1
  O  O247  1  0.25154691  0.64128399  0.75912018  1
  H  H248  1  0.82482655  0.26830966  0.08532611  1
  C  C249  1  0.73545383  0.27755817  0.13925746  1
  H  H250  1  0.59165691  0.18699599  0.02222387  1
  C  C251  1  0.61614018  0.20899084  0.04701843  1
  C  C252  1  0.83585763  0.35851477  0.19033417  1
  C  C253  1  0.80130993  0.43903994  0.16988154  1
  C  C254  1  0.55812063  0.21410986  0.07393446  1
  H  H255  1  0.72411254  0.08073528  0.11570866  1
  H  H256  1  0.88081691  0.38416486  0.21142835  1
  C  C257  1  0.76808583  0.19958316  0.16116592  1
  C  C258  1  0.74748546  0.24928586  0.08255246  1
  C  C259  1  0.81896958  0.25218244  0.18475674  1
  C  C260  1  0.71042417  0.22441815  0.05260650  1
  H  H261  1  0.85038670  0.20232352  0.20324787  1
  H  H262  1  0.53629892  0.24072269  0.12426402  1
  C  C263  1  0.68624790  0.25225158  0.10835501  1
  H  H264  1  0.62200676  0.06178966  0.14295749  1
  C  C265  1  0.74732133  0.39073749  0.14306704  1
  C  C266  1  0.71870331  0.46642210  0.11992855  1
  H  H267  1  0.68292955  0.44066928  0.09908939  1
  C  C268  1  0.58832405  0.23404614  0.10492407  1
  H  H269  1  0.64939125  0.31718006  0.21306167  1
  O  O270  1  0.86294541  0.23830701  0.03183325  1
  C  C271  1  0.77730691  0.21753793  0.02635001  1
  C  C272  1  0.99476799  0.13232215  0.23328646  1
  O  O273  1  0.75938413  0.08985998  0.16142858  1
  H  H274  1  0.88499438  0.04097157  0.03970345  1
  H  H275  1  0.60541225  0.39897456  0.18519733  1
  H  H276  1  0.93518832  0.04021426  0.17638582  1
  O  O277  1  0.55781449  0.39458780  0.24853323  1
  C  C278  1  0.64767299  0.34335067  0.23926747  1
  H  H279  1  0.92105980  0.12474782  0.07225411  1
  C  C280  1  0.69941075  0.04144101  0.13858349  1
  H  H281  1  0.70183178  0.40916371  0.24147094  1
  H  H282  1  0.67512800  0.01139105  0.01716956  1
  H  H283  1  0.90609306  0.07225921  0.12471988  1
  C  C284  1  0.95487120  0.00325306  0.12891670  1
  C  C285  1  0.52880163  0.48688830  0.22232989  1
  H  H286  1  0.97051207  0.49578188  0.21303549  1
  C  C287  1  0.56499970  0.47523938  0.19200835  1
  H  H288  1  0.82939200  0.02444177  0.07906542  1
  C  C289  1  0.89750229  0.03956378  0.06699853  1
  Cu  Cu290  1  0.96239474  0.23595765  0.00346848  1
  O  O291  1  0.88083307  0.21688354  0.48125912  1
  C  C292  1  0.95094061  0.11378740  0.26125133  1
  C  C293  1  0.99057431  0.32560774  0.37114643  1
  Cu  Cu294  1  0.92039922  0.07861967  0.46969680  1
  H  H295  1  0.91012045  0.25556236  0.42664199  1
  Cu  Cu296  1  0.93750252  0.13109771  0.35061265  1
  O  O297  1  0.86137066  0.06095804  0.32005694  1
  C  C298  1  0.99156697  0.04121948  0.40854836  1
  O  O299  1  0.91942870  0.26232623  0.36981211  1
  H  H300  1  0.57625685  0.36357680  0.29828261  1
  H  H301  1  0.92751915  0.18416224  0.27219890  1
  O  O302  1  0.92783925  0.05964135  0.38960140  1
  C  C303  1  0.97428177  0.30458883  0.42939871  1
  C  C304  1  0.56289951  0.43664133  0.28361022  1
  O  O305  1  0.78602988  0.36539965  0.28576517  1
  C  C306  1  0.94922452  0.28062313  0.48818722  1
  C  C307  1  0.78028223  0.38660840  0.31006398  1
  C  C308  1  0.93499316  0.00952889  0.27323482  1
  H  H309  1  0.61155894  0.49908688  0.29196622  1
  H  H310  1  0.66774029  0.26958194  0.25375771  1
  Cu  Cu311  1  0.67521595  0.17741139  0.66286365  1
  C  C312  1  0.59570409  0.27284824  0.53538259  1
  C  C313  1  0.92933265  0.30764737  0.71471792  1
  C  C314  1  0.54732988  0.43245799  0.64191434  1
  H  H315  1  0.77667086  0.41009431  0.72304696  1
  O  O316  1  0.55612621  0.25136959  0.65476327  1
  C  C317  1  0.85493531  0.26512315  0.73308368  1
  H  H318  1  0.92444329  0.30979442  0.68865998  1
  O  O319  1  0.77123617  0.23618906  0.68456725  1
  H  H320  1  0.62152049  0.32877560  0.61098478  1
  O  O321  1  0.84480725  0.42117629  0.59609808  1
  H  H322  1  0.52772710  0.13057658  0.60735565  1
  C  C323  1  0.77446390  0.22354913  0.71460403  1
  O  O324  1  0.80045432  0.15732958  0.59270671  1
  C  C325  1  0.59919742  0.41384919  0.61489083  1
  O  O326  1  0.70974361  0.17600230  0.72848700  1
  H  H327  1  0.74732096  0.49499814  0.69010941  1
  H  H328  1  0.87589227  0.19234848  0.63476751  1
  H  H329  1  0.88328080  0.05288584  0.62323474  1
  H  H330  1  0.74610437  0.25475722  0.54285243  1
  C  C331  1  0.71279781  0.14166465  0.60051905  1
  C  C332  1  0.67526077  0.23737117  0.54974149  1
  C  C333  1  0.64221871  0.18259331  0.57884955  1
  C  C334  1  0.87820183  0.13690602  0.61445420  1
  O  O335  1  0.68586706  0.09503569  0.62549790  1
  Cu  Cu336  1  0.64475939  0.05606236  0.71298910  1
  H  H337  1  0.94560911  0.15792176  0.60290274  1
  C  C338  1  0.77409678  0.49631052  0.71473144  1
  H  H339  1  0.89859033  0.45302647  0.53323506  1
  C  C340  1  0.82549810  0.47942290  0.53767391  1
  C  C341  1  0.78587588  0.47134417  0.56795299  1
  C  C342  1  0.54609903  0.17053801  0.58431788  1
  C  C343  1  0.52121799  0.34006014  0.66253571  1
  O  O344  1  0.97400367  0.29624878  0.51484524  1
  H  H345  1  0.75111360  0.48782304  0.62530365  1
  H  H346  1  0.84931308  0.39527910  0.64296622  1
  C  C347  1  0.81322430  0.43094294  0.62177152  1
  O  O348  1  0.81841060  0.36027783  0.96511394  1
  C  C349  1  0.90000515  0.36726808  0.95247911  1
  H  H350  1  0.86283399  0.46926063  0.82817441  1
  C  C351  1  0.55145587  0.08517746  0.96639426  1
  H  H352  1  0.71334641  0.03268013  0.93015692  1
  C  C353  1  0.87140102  0.28355287  0.83766490  1
  O  O354  1  0.59631784  0.16104521  0.95434557  1
  C  C355  1  0.94967759  0.28993271  0.81644819  1
  H  H356  1  0.80011823  0.22311303  0.77715608  1
  H  H357  1  0.73486597  0.37243330  0.86863269  1
  Cu  Cu358  1  0.71313249  0.26019821  0.96229286  1
  C  C359  1  0.71288619  0.31130835  0.85055341  1
  H  H360  1  0.83388504  0.25063257  0.88733775  1
  O  O361  1  0.78293914  0.30341621  0.82721201  1
  C  C362  1  0.93770281  0.30632119  0.78194918  1
  H  H363  1  0.53877773  0.10524589  0.90202359  1
  C  C364  1  0.54076151  0.39909079  0.89677871  1
  C  C365  1  0.61031772  0.36186611  0.91029073  1
  O  O366  1  0.68515970  0.32738858  0.92296751  1
  C  C367  1  0.89344620  0.25740418  0.86991063  1
  H  H368  1  0.70827222  0.23274349  0.86594409  1
  C  C369  1  0.85918927  0.26335029  0.76622823  1
  H  H370  1  0.84928353  0.46003973  0.77092966  1
  C  C371  1  0.91365712  0.43512176  0.92448285  1
  H  H372  1  0.63887348  0.32728416  0.84359832  1
  O  O373  1  0.74982300  0.18636264  0.99923910  1
  C  C374  1  0.50659758  0.03309548  0.91131580  1
  O  O375  1  0.54762236  0.06830159  0.99653526  1
  O  O376  1  0.96915373  0.32456025  0.96610434  1
  H  H377  1  0.99540592  0.22241080  0.90721841  1
  C  C378  1  0.98327476  0.23879379  0.88099786  1
  C  C379  1  0.51179382  0.00904765  0.94423727  1
  H  H380  1  0.76521513  0.47583998  0.92169351  1
  H  H381  1  0.68578511  0.04404888  0.80436360  1
  O  O382  1  0.86838804  0.00354895  0.87353647  1
  C  C383  1  0.83511946  0.48464779  0.91090433  1
  H  H384  1  0.77318050  0.00811353  0.83593141  1
  H  H385  1  0.93268161  0.74848340  0.16376505  1
  C  C386  1  0.63585570  0.88107630  0.05827304  1
  C  C387  1  0.54350398  0.54883239  0.16704243  1
  C  C388  1  0.55819108  0.79671339  0.10454245  1
  H  H389  1  0.69675586  0.66573216  0.20768117  1
  O  O390  1  0.97260518  0.96522719  0.07104030  1
  O  O391  1  0.78604445  0.73018754  0.15165628  1
  H  H392  1  0.70770816  0.95303448  0.13670425  1
  H  H393  1  0.85605068  0.85754106  0.17314952  1
  C  C394  1  0.85669669  0.76758759  0.17268024  1
  O  O395  1  0.65213688  0.96437789  0.06984467  1
  O  O396  1  0.65461917  0.85877545  0.02809705  1
  C  C397  1  0.73641583  0.57143212  0.12508667  1
  O  O398  1  0.52280344  0.52789258  0.02044357  1
  C  C399  1  0.58906077  0.78508087  0.07300233  1
  C  C400  1  0.75564754  0.63539894  0.22273783  1
  H  H401  1  0.71568844  0.62538854  0.10518896  1
  C  C402  1  0.53146277  0.61293193  0.06936784  1
  H  H403  1  0.85197000  0.74173713  0.19842666  1
  C  C404  1  0.82901672  0.57420084  0.20851137  1
  C  C405  1  0.99096979  0.94283003  0.10240349  1
  C  C406  1  0.78109433  0.62332876  0.15005371  1
  C  C407  1  0.57695482  0.69882931  0.05402057  1
  H  H408  1  0.60251199  0.70021231  0.02899087  1
  C  C409  1  0.70762714  0.94185176  0.00404773  1
  C  C410  1  0.91250260  0.54125203  0.22488063  1
  H  H411  1  0.57903881  0.54726920  0.14418998  1
  C  C412  1  0.97341132  0.98378151  0.16001993  1
  H  H413  1  0.57240549  0.86242796  0.11986378  1
  C  C414  1  0.50749550  0.70932143  0.11682641  1
  C  C415  1  0.81430865  0.55138352  0.17396239  1
  C  C416  1  0.51119136  0.52024456  0.04955443  1
  C  C417  1  0.88173528  0.98316485  0.30162220  1
  Cu  Cu418  1  0.90625278  0.79965253  0.34196415  1
  C  C419  1  0.74256512  0.76437087  0.38214546  1
  H  H420  1  0.81387869  0.54525388  0.48719660  1
  H  H421  1  0.82567456  0.61584548  0.29845368  1
  H  H422  1  0.87523882  0.86006485  0.41947736  1
  C  C423  1  0.68554685  0.68812083  0.43269255  1
  C  C424  1  0.82773464  0.80515657  0.46490419  1
  O  O425  1  0.94981285  0.93184255  0.47072798  1
  C  C426  1  0.70008661  0.67478524  0.46463125  1
  C  C427  1  0.76491172  0.73984929  0.48113916  1
  C  C428  1  0.75700694  0.64759246  0.25472002  1
  O  O429  1  0.68159440  0.70321829  0.30198823  1
  C  C430  1  0.91018444  0.56022553  0.25747749  1
  O  O431  1  0.79793006  0.82737215  0.36693205  1
  C  C432  1  0.63739956  0.61812817  0.48907699  1
  Cu  Cu433  1  0.62057987  0.78835235  0.33114498  1
  C  C434  1  0.68532073  0.71788636  0.27035011  1
  C  C435  1  0.75272386  0.75491502  0.41698779  1
  C  C436  1  0.82183233  0.81424415  0.43223600  1
  O  O437  1  0.67539599  0.71996311  0.36825606  1
  C  C438  1  0.89556621  0.86604320  0.48571230  1
  O  O439  1  0.86047241  0.88669344  0.30926055  1
  H  H440  1  0.62370844  0.65540271  0.41934414  1
  H  H441  1  0.96894450  0.84332006  0.26730907  1
  C  C442  1  0.83014697  0.60470864  0.27248503  1
  C  C443  1  0.53669179  0.62365969  0.48670116  1
  C  C444  1  0.97355720  0.92441809  0.25675808  1
  C  C445  1  0.98861943  0.52903575  0.27779163  1
  O  O446  1  0.62410948  0.75682619  0.25558707  1
  O  O447  1  0.50340411  0.84394338  0.32466850  1
  H  H448  1  0.99733712  0.91931266  0.35616279  1
  O  O449  1  0.98487200  0.53671726  0.30716789  1
  H  H450  1  0.64891729  0.78279317  0.73700916  1
  C  C451  1  0.78257247  0.53310507  0.51106333  1
  O  O452  1  0.55186343  0.80483886  0.63077618  1
  C  C453  1  0.51856082  0.53341245  0.65324714  1
  C  C454  1  0.51354324  0.88267341  0.71380332  1
  H  H455  1  0.77168846  0.73993925  0.50728730  1
  C  C456  1  0.68488247  0.56332471  0.51461384  1
  C  C457  1  0.54572192  0.61823990  0.63443294  1
  C  C458  1  0.59527536  0.60336326  0.60699216  1
  H  H459  1  0.61576277  0.67276896  0.59198053  1
  O  O460  1  0.89743003  0.84695707  0.51357683  1
  O  O461  1  0.71208440  0.56011388  0.73457328  1
  O  O462  1  0.59830068  0.91764481  0.70818115  1
  C  C463  1  0.58281661  0.75677115  0.74680410  1
  H  H464  1  0.99763311  0.52278232  0.58881456  1
  C  C465  1  0.53105929  0.53895695  0.54145836  1
  C  C466  1  0.51837977  0.72845865  0.64494178  1
  C  C467  1  0.63008027  0.53184993  0.54229156  1
  C  C468  1  0.62573093  0.50179449  0.59675257  1
  C  C469  1  0.69200117  0.50061331  0.56923291  1
  H  H470  1  0.84856033  0.53094265  0.71522581  1
  H  H471  1  0.55964580  0.74695321  0.82620459  1
  C  C472  1  0.57863535  0.67383623  0.76982292  1
  H  H473  1  0.58627502  0.77497311  0.88212031  1
  C  C474  1  0.70784510  0.98443235  0.82329071  1
  C  C475  1  0.84654002  0.54924238  0.88277007  1
  O  O476  1  0.72071746  0.69452746  0.91833468  1
  C  C477  1  0.76389403  0.60529035  0.86883495  1
  C  C478  1  0.80750443  0.51656687  0.81568001  1
  O  O479  1  0.62900660  0.98597498  0.84552011  1
  C  C480  1  0.75383861  0.58564008  0.83495524  1
  C  C481  1  0.67269177  0.63375376  0.81857976  1
  C  C482  1  0.93940697  0.55969212  0.87079368  1
  H  H483  1  0.72399153  0.90894297  0.81002344  1
  C  C484  1  0.63106722  0.72215241  0.86925443  1
  H  H485  1  0.66654799  0.85267548  0.92221455  1
  C  C486  1  0.66419609  0.62089953  0.78528091  1
  H  H487  1  0.89668499  0.90525113  0.95490159  1
  H  H488  1  0.95661362  0.61509223  0.85104119  1
  C  C489  1  0.67310207  0.77700078  0.93518438  1
  C  C490  1  0.70620712  0.67367760  0.88707927  1
  C  C491  1  0.72599722  0.55959287  0.76602068  1
  C  C492  1  0.82147674  0.94070946  0.95486080  1
  H  H493  1  0.59998668  0.75029229  0.94102880  1
  H  H494  1  0.72075713  0.79148123  0.95690379  1
  C  C495  1  0.61659489  0.70417200  0.83803860  1
  C  C496  1  0.79760757  0.50992931  0.78350118  1
  C  C497  1  0.76127680  0.94178891  0.98085074  1
  H  H498  1  0.95397916  0.99744595  0.80645607  1
  C  C499  1  0.54201238  0.97661262  0.83472854  1
  H  H500  1  0.58136001  0.96664288  0.78410329  1
  C  C501  1  0.52165802  0.96774832  0.80187053  1
  C  C502  1  0.82917812  0.99927926  0.89864610  1
  C  C503  1  0.78301397  0.99288982  0.92852205  1
