# generated using pymatgen
data_Cu3H14(C17O6)2
_symmetry_space_group_name_H-M   'P 1'
_cell_length_a   12.95352315
_cell_length_b   7.94590685
_cell_length_c   48.68854405
_cell_angle_alpha   90.00000000
_cell_angle_beta   90.00000000
_cell_angle_gamma   90.00000000
_symmetry_Int_Tables_number   1
_chemical_formula_structural   Cu3H14(C17O6)2
_chemical_formula_sum   'Cu18 H84 C204 O72'
_cell_volume   5011.38954652
_cell_formula_units_Z   6
loop_
 _symmetry_equiv_pos_site_id
 _symmetry_equiv_pos_as_xyz
  1  'x, y, z'
loop_
 _atom_site_type_symbol
 _atom_site_label
 _atom_site_symmetry_multiplicity
 _atom_site_fract_x
 _atom_site_fract_y
 _atom_site_fract_z
 _atom_site_occupancy
  C  C0  1  0.18539304  0.42064012  0.18448112  1
  H  H1  1  0.01344333  0.30056669  0.06341218  1
  C  C2  1  0.08609124  0.05847381  0.08003766  1
  H  H3  1  0.27930761  0.29246876  0.06187541  1
  C  C4  1  0.29482666  0.13157402  0.13122706  1
  C  C5  1  0.36097289  0.31606546  0.06641710  1
  H  H6  1  0.10488783  0.27715921  0.23037434  1
  C  C7  1  0.24581285  0.32321071  0.20441535  1
  C  C8  1  0.35604983  0.31656686  0.20341205  1
  H  H9  1  0.11525976  0.12350325  0.16322576  1
  C  C10  1  0.38383997  0.44537768  0.02139563  1
  C  C11  1  0.41060647  0.27030436  0.09024557  1
  C  C12  1  0.33908869  0.18778951  0.11124712  1
  C  C13  1  0.15477337  0.01696303  0.05653830  1
  C  C14  1  0.41304458  0.22776369  0.22265875  1
  C  C15  1  0.19059262  0.25820665  0.22799891  1
  C  C16  1  0.01625768  0.20183743  0.07912271  1
  C  C17  1  0.13301975  0.48275842  0.16656184  1
  H  H18  1  0.39753846  0.39446894  0.18689869  1
  O  O19  1  0.28411677  0.45590377  0.01945953  1
  C  C20  1  0.42953909  0.37340943  0.04565818  1
  C  C21  1  0.35194727  0.13755276  0.24149806  1
  C  C22  1  0.24203891  0.15503019  0.24504933  1
  H  H23  1  0.49850513  0.22188245  0.22215979  1
  C  C24  1  0.27052621  0.05179788  0.15808867  1
  C  C25  1  0.17300577  0.03862152  0.17216946  1
  H  H26  1  0.17282350  0.48619926  0.11246520  1
  O  O27  1  0.02880404  0.04513494  0.24695819  1
  C  C28  1  0.18321896  0.13352527  0.47870771  1
  C  C29  1  0.26195082  0.25044027  0.48448885  1
  H  H30  1  0.00980548  0.24665879  0.35861681  1
  C  C31  1  0.08237455  0.14589437  0.48970011  1
  H  H32  1  0.34090390  0.23306436  0.47632157  1
  C  C33  1  0.01889978  0.01509995  0.27093811  1
  H  H34  1  0.19462611  0.08717141  0.26143835  1
  H  H35  1  0.02457661  0.04617176  0.48749869  1
  C  C36  1  0.40651260  0.02614645  0.26061443  1
  O  O37  1  0.46610887  0.32774406  0.44163342  1
  C  C38  1  0.19997043  0.00458703  0.45745327  1
  C  C39  1  0.23073126  0.38513970  0.49981886  1
  C  C40  1  0.37108984  0.30020648  0.63153168  1
  C  C41  1  0.16285209  0.23987446  0.73246405  1
  C  C42  1  0.19747747  0.06680139  0.58281562  1
  C  C43  1  0.18969418  0.22514414  0.63345237  1
  C  C44  1  0.15248093  0.09075395  0.71289580  1
  C  C45  1  0.31293444  0.01567095  0.68162901  1
  C  C46  1  0.28862168  0.13955628  0.59228223  1
  H  H47  1  0.23319606  0.31258512  0.73832269  1
  C  C48  1  0.23743821  0.04811584  0.69552990  1
  C  C49  1  0.13203880  0.42299589  0.50897797  1
  H  H50  1  0.49151398  0.10532102  0.69648425  1
  C  C51  1  0.49678451  0.05440851  0.67546038  1
  C  C52  1  0.10042476  0.15759067  0.62260224  1
  C  C53  1  0.28071521  0.22004809  0.61805011  1
  H  H54  1  0.18744298  0.27206601  0.65413580  1
  C  C55  1  0.06541871  0.28562198  0.73861552  1
  C  C56  1  0.10469258  0.07466098  0.59720746  1
  C  C57  1  0.40290310  0.00325225  0.66326023  1
  H  H58  1  0.36209744  0.13204011  0.58226612  1
  C  C59  1  0.04994773  0.04132200  0.70558760  1
  C  C60  1  0.43065296  0.37484536  0.64633547  1
  C  C61  1  0.06099269  0.29654396  0.50271047  1
  O  O62  1  0.40596521  0.46532193  0.50851099  1
  C  C63  1  0.31799989  0.49832728  0.51044066  1
  H  H64  1  0.03617436  0.00656037  0.58765479  1
  Cu  Cu65  1  0.02338910  0.46290415  0.67089032  1
  O  O66  1  0.00447852  0.23725812  0.66029530  1
  C  C67  1  0.49236117  0.48745446  0.66399680  1
  O  O68  1  0.30724476  0.14446970  0.94838099  1
  C  C69  1  0.09348226  0.11318931  0.96715086  1
  C  C70  1  0.13235470  0.04130879  0.94315026  1
  Cu  Cu71  1  0.45511360  0.16369719  0.93527364  1
  C  C72  1  0.24373785  0.05760617  0.93352512  1
  H  H73  1  0.13953291  0.19460457  0.97962408  1
  O  O74  1  0.41715382  0.36536945  0.91545979  1
  H  H75  1  0.07458659  0.06342633  0.85141574  1
  H  H76  1  0.39012684  0.45035448  0.86796167  1
  H  H77  1  0.34020388  0.00536094  0.98987121  1
  O  O78  1  0.15828495  0.70918091  0.23971659  1
  C  C79  1  0.05452501  0.56500791  0.06679692  1
  C  C80  1  0.10196897  0.95643324  0.10341729  1
  H  H81  1  0.15368204  0.84907944  0.10168592  1
  C  C82  1  0.06753076  0.55440719  0.14478463  1
  H  H83  1  0.08379113  0.91974655  0.20570125  1
  H  H84  1  0.04013913  0.91076801  0.14435220  1
  C  C85  1  0.48988475  0.99215289  0.00775483  1
  C  C86  1  0.49523093  0.94122989  0.05687506  1
  C  C87  1  0.38851257  0.95510381  0.05951017  1
  C  C88  1  0.24556896  0.85037718  0.20514660  1
  H  H89  1  0.34827082  0.94875298  0.07901763  1
  C  C90  1  0.34451566  0.87473084  0.19252722  1
  C  C91  1  0.03624153  0.98390238  0.12520181  1
  C  C92  1  0.24721460  0.73991582  0.22870697  1
  Cu  Cu93  1  0.18625839  0.62566150  0.02735781  1
  C  C94  1  0.15576707  0.93558716  0.19450774  1
  O  O95  1  0.33153582  0.69009074  0.23959880  1
  H  H96  1  0.41363440  0.81850535  0.20176628  1
  C  C97  1  0.22519880  0.99355388  0.04063445  1
  C  C98  1  0.38238671  0.99173334  0.00874305  1
  C  C99  1  0.35945591  0.96902887  0.16913688  1
  C  C100  1  0.33583993  0.98147419  0.03411220  1
  C  C101  1  0.02458241  0.58250683  0.09606001  1
  C  C102  1  0.09185491  0.53167645  0.11658468  1
  O  O103  1  0.14320755  0.51923077  0.05969022  1
  O  O104  1  0.43988709  0.50989519  0.00296043  1
  H  H105  1  0.43371869  0.97301690  0.15874845  1
  H  H106  1  0.00788024  0.66113913  0.00464295  1
  Cu  Cu107  1  0.14630905  0.70477884  0.27792452  1
  C  C108  1  0.15182787  0.68291007  0.37017896  1
  C  C109  1  0.26333282  0.69224825  0.32752919  1
  C  C110  1  0.24863178  0.71669544  0.35679755  1
  H  H111  1  0.09034349  0.64237374  0.35692087  1
  H  H112  1  0.38550742  0.87645126  0.41002541  1
  O  O113  1  0.17839565  0.65275890  0.31521231  1
  C  C114  1  0.22105952  0.81041464  0.41184555  1
  C  C115  1  0.13871182  0.72137751  0.39739371  1
  O  O116  1  0.35931811  0.94502880  0.27974006  1
  H  H117  1  0.41118039  0.79581470  0.36131436  1
  O  O118  1  0.34632105  0.71219592  0.31520179  1
  C  C119  1  0.20751070  0.90799494  0.43811509  1
  C  C120  1  0.33605564  0.76311342  0.37189473  1
  C  C121  1  0.32132370  0.81486627  0.39981241  1
  H  H122  1  0.06292162  0.70354167  0.40642897  1
  Cu  Cu123  1  0.34347421  0.71355273  0.27661549  1
  O  O124  1  0.03607707  0.87415749  0.28225876  1
  Cu  Cu125  1  0.34925457  0.73804616  0.55067567  1
  H  H126  1  0.36214185  0.66352874  0.67245494  1
  C  C127  1  0.48273047  0.87269471  0.59289184  1
  C  C128  1  0.16694110  0.65045174  0.68859706  1
  C  C129  1  0.49652546  0.94244147  0.62209090  1
  C  C130  1  0.49719284  0.71900448  0.69610319  1
  O  O131  1  0.12108213  0.92058879  0.54575312  1
  H  H132  1  0.03914216  0.94445158  0.68929786  1
  C  C133  1  0.44153679  0.62600698  0.67696713  1
  H  H134  1  0.46178831  0.83004953  0.70700584  1
  O  O135  1  0.39965215  0.79227910  0.58482547  1
  O  O136  1  0.28529899  0.63305385  0.52281693  1
  C  C137  1  0.21410349  0.64402867  0.71811738  1
  O  O138  1  0.22216403  0.62822341  0.66941265  1
  C  C139  1  0.30708645  0.63453966  0.72479715  1
  C  C140  1  0.40265397  0.93841967  0.63641849  1
  O  O141  1  0.28858315  0.95015769  0.54561341  1
  C  C142  1  0.19977587  0.97531035  0.55552614  1
  O  O143  1  0.06948498  0.64275713  0.68723163  1
  H  H144  1  0.32764679  0.89375619  0.62741642  1
  H  H145  1  0.11666043  0.53894152  0.52180624  1
  H  H146  1  0.08394155  0.55207181  0.74679959  1
  H  H147  1  0.45752806  0.60481726  0.74533717  1
  C  C148  1  0.36851507  0.62652854  0.74712193  1
  C  C149  1  0.14045313  0.66426844  0.74336685  1
  H  H150  1  0.09337917  0.78516521  0.74184875  1
  C  C151  1  0.35215410  0.66567439  0.79904213  1
  O  O152  1  0.26950727  0.99219696  0.91215296  1
  C  C153  1  0.42466665  0.57255467  0.87094086  1
  C  C154  1  0.07330598  0.94194990  0.92591939  1
  H  H155  1  0.15776345  0.70248048  0.78712460  1
  O  O156  1  0.47807772  0.55797286  0.94358044  1
  H  H157  1  0.10299608  0.88530550  0.90699602  1
  C  C158  1  0.30457300  0.65509002  0.77156389  1
  C  C159  1  0.47476907  0.85164244  0.85648253  1
  C  C160  1  0.19311593  0.68067349  0.97172940  1
  C  C161  1  0.45997360  0.62688434  0.89634504  1
  C  C162  1  0.09305788  0.60312189  0.96526717  1
  O  O163  1  0.26979542  0.67553673  0.95592791  1
  C  C164  1  0.38436469  0.68623645  0.82213843  1
  C  C165  1  0.00844344  0.60618541  0.98389448  1
  C  C166  1  0.42835971  0.69411473  0.84979179  1
  Cu  Cu167  1  0.39924645  0.63362289  0.97241174  1
  C  C168  1  0.19845579  0.67722703  0.76931377  1
  C  C169  1  0.08790570  0.53743644  0.93895498  1
  C  C170  1  0.45268618  0.51227343  0.92045715  1
  O  O171  1  0.19807881  0.74711449  0.99531650  1
  H  H172  1  0.15579364  0.54006407  0.92502386  1
  H  H173  1  0.49132508  0.93901233  0.83949423  1
  O  O174  1  0.49099564  0.99371760  0.95960018  1
  H  H175  1  0.00180590  0.92797837  0.80688395  1
  O  O176  1  0.73342511  0.22818219  0.09585153  1
  O  O177  1  0.74347788  0.33533690  0.05378784  1
  C  C178  1  0.69100629  0.29992035  0.07506323  1
  C  C179  1  0.91658938  0.16826996  0.15261975  1
  O  O180  1  0.98440615  0.20738832  0.01543668  1
  H  H181  1  0.58296976  0.41232616  0.03131822  1
  C  C182  1  0.77421281  0.15584675  0.22729573  1
  O  O183  1  0.85229940  0.29309052  0.15363556  1
  C  C184  1  0.51679278  0.25976047  0.09471674  1
  C  C185  1  0.77482291  0.25338269  0.20355862  1
  H  H186  1  0.74852747  0.44075844  0.17223532  1
  C  C187  1  0.53471536  0.36829888  0.04865383  1
  C  C188  1  0.78682665  0.32184812  0.18093500  1
  Cu  Cu189  1  0.85169468  0.48884197  0.04992447  1
  C  C190  1  0.58158605  0.30960455  0.07328539  1
  H  H191  1  0.54753854  0.21272949  0.11462083  1
  H  H192  1  0.90961112  0.34300061  0.10439257  1
  C  C193  1  0.95927351  0.22747407  0.10323487  1
  O  O194  1  0.93139659  0.07768706  0.17186687  1
  O  O195  1  0.83529024  0.09527685  0.00146896  1
  Cu  Cu196  1  0.74250787  0.01342602  0.10736836  1
  C  C197  1  0.97199842  0.12831663  0.12637597  1
  Cu  Cu198  1  0.63499506  0.05255860  0.39785855  1
  C  C199  1  0.60318602  0.15936983  0.34527320  1
  H  H200  1  0.69402306  0.33171233  0.30913777  1
  O  O201  1  0.71117413  0.11757151  0.27334819  1
  C  C202  1  0.79336181  0.22380312  0.42518268  1
  O  O203  1  0.55460197  0.08631027  0.36509842  1
  C  C204  1  0.58286818  0.43706776  0.37169721  1
  Cu  Cu205  1  0.85978663  0.09993748  0.47688631  1
  H  H206  1  0.90717586  0.33884952  0.25830582  1
  H  H207  1  0.53321102  0.39691203  0.38861337  1
  C  C208  1  0.61496139  0.34246654  0.34833950  1
  H  H209  1  0.84395345  0.38709645  0.37824588  1
  O  O210  1  0.76268920  0.15850260  0.40299520  1
  C  C211  1  0.54880157  0.22220103  0.49100604  1
  Cu  Cu212  1  0.57998661  0.06002528  0.29014276  1
  C  C213  1  0.93677482  0.31990204  0.27951657  1
  O  O214  1  0.63869487  0.07864988  0.32436453  1
  O  O215  1  0.77726916  0.16483189  0.44845927  1
  C  C216  1  0.83805081  0.39534664  0.42312195  1
  C  C217  1  0.50373403  0.17753791  0.44169865  1
  C  C218  1  0.93271129  0.43513749  0.32631581  1
  C  C219  1  0.66988864  0.41000079  0.32658554  1
  C  C220  1  0.91602422  0.45264539  0.29698122  1
  C  C221  1  0.85312015  0.45777906  0.39658675  1
  H  H222  1  0.83972640  0.44391116  0.46801665  1
  O  O223  1  0.50245270  0.02506021  0.25989372  1
  C  C224  1  0.72355352  0.23505977  0.25094419  1
  C  C225  1  0.54886052  0.11900559  0.46810764  1
  O  O226  1  0.69400712  0.37267219  0.25203396  1
  C  C227  1  0.85644897  0.48791747  0.44763681  1
  C  C228  1  0.98076253  0.16267548  0.28851381  1
  C  C229  1  0.98397231  0.26959480  0.33635364  1
  C  C230  1  0.99922315  0.17004611  0.31636752  1
  H  H231  1  0.51794582  0.35336956  0.49050152  1
  O  O232  1  0.51336443  0.08698821  0.42081390  1
  H  H233  1  0.85226987  0.03209981  0.27967800  1
  O  O234  1  0.93679641  0.46600527  0.52443279  1
  C  C235  1  0.59757360  0.45668971  0.66867890  1
  C  C236  1  0.96472827  0.23880159  0.73399849  1
  C  C237  1  0.78437117  0.35628319  0.58181897  1
  O  O238  1  0.79000757  0.31012038  0.73516277  1
  C  C239  1  0.95639673  0.09929004  0.71529725  1
  C  C240  1  0.68196557  0.12441587  0.67548598  1
  Cu  Cu241  1  0.70340187  0.12118358  0.73442085  1
  C  C242  1  0.58937271  0.05826191  0.66113481  1
  O  O243  1  0.66214841  0.18265785  0.69939448  1
  C  C244  1  0.87683446  0.34700468  0.74439393  1
  H  H245  1  0.63876241  0.35258165  0.65680804  1
  C  C246  1  0.61843621  0.33532857  0.55996225  1
  O  O247  1  0.91952495  0.09583976  0.62903529  1
  O  O248  1  0.76961624  0.12989926  0.66658433  1
  H  H249  1  0.81477955  0.27618476  0.56748334  1
  C  C250  1  0.95862642  0.32240656  0.51482458  1
  C  C251  1  0.67655454  0.41056364  0.58231621  1
  C  C252  1  0.99855703  0.16372633  0.63720335  1
  C  C253  1  0.58533714  0.00340898  0.63367603  1
  H  H254  1  0.88052231  0.05944849  0.70657833  1
  H  H255  1  0.93019124  0.41028985  0.60205769  1
  C  C256  1  0.84541870  0.43054757  0.60107406  1
  O  O257  1  0.88840002  0.21394858  0.51052778  1
  C  C258  1  0.58533112  0.14579661  0.51575137  1
  C  C259  1  0.59608373  0.25082223  0.53993508  1
  H  H260  1  0.65629703  0.00459815  0.62111683  1
  C  C261  1  0.98504077  0.37819421  0.90387310  1
  C  C262  1  0.93193894  0.21444701  0.85702709  1
  C  C263  1  0.82667379  0.23769134  0.84764876  1
  C  C264  1  0.91051541  0.45857096  0.94807396  1
  O  O265  1  0.73906957  0.05180461  0.77171464  1
  C  C266  1  0.96610482  0.30689343  0.88277147  1
  C  C267  1  0.78822155  0.17586192  0.82225509  1
  H  H268  1  0.70999254  0.20473594  0.81458442  1
  C  C269  1  0.95859430  0.02384127  0.81920253  1
  H  H270  1  0.59928110  0.32689135  0.89125118  1
  C  C271  1  0.60210453  0.35520155  0.86806060  1
  C  C272  1  0.99278296  0.07851504  0.97335484  1
  C  C273  1  0.85777025  0.06143803  0.80896419  1
  O  O274  1  0.56063397  0.11933218  0.91066571  1
  O  O275  1  0.54993540  0.17093528  0.86504905  1
  H  H276  1  0.53837485  0.36111548  0.82069893  1
  C  C277  1  0.54005591  0.07078228  0.88696073  1
  H  H278  1  0.77926525  0.32276634  0.85993236  1
  H  H279  1  0.83697749  0.39949157  0.94152531  1
  O  O280  1  0.53136199  0.39556621  0.80177412  1
  Cu  Cu281  1  0.71059732  0.20981297  0.99412063  1
  O  O282  1  0.74750420  0.42764434  0.98466192  1
  O  O283  1  0.88985379  0.47283880  0.75943939  1
  C  C284  1  0.62497417  0.47616443  0.85284350  1
  C  C285  1  0.99920807  0.09369389  0.84260312  1
  C  C286  1  0.99382046  0.46008509  0.93069596  1
  O  O287  1  0.63980945  0.02153081  0.98356161  1
  C  C288  1  0.93564279  0.12998873  0.99866131  1
  O  O289  1  0.65167700  0.91828982  0.08092085  1
  C  C290  1  0.80641892  0.74170417  0.14235869  1
  H  H291  1  0.88006449  0.71158446  0.08942303  1
  O  O292  1  0.75632066  0.80139537  0.12099811  1
  H  H293  1  0.83866362  0.73301085  0.24113207  1
  H  H294  1  0.62888939  0.96468146  0.03227959  1
  C  C295  1  0.80732005  0.98267545  0.22223146  1
  O  O296  1  0.77496909  0.74926006  0.16521615  1
  C  C297  1  0.54570942  0.96645453  0.03235520  1
  C  C298  1  0.54977593  0.91970302  0.08324972  1
  C  C299  1  0.90456821  0.66127197  0.13163130  1
  O  O300  1  0.50244509  0.90099779  0.10392884  1
  C  C301  1  0.93004057  0.65304126  0.10419163  1
  C  C302  1  0.81465517  0.87408586  0.24343012  1
  C  C303  1  0.96962945  0.60703657  0.15303288  1
  O  O304  1  0.98399877  0.60735439  0.05053029  1
  O  O305  1  0.82757229  0.57764324  0.01531740  1
  H  H306  1  0.94565306  0.60082883  0.17507552  1
  H  H307  1  0.83715729  0.93728273  0.20295388  1
  C  C308  1  0.69771558  0.58157279  0.32923640  1
  C  C309  1  0.74193138  0.69613055  0.30691285  1
  C  C310  1  0.61957152  0.59925236  0.37387187  1
  C  C311  1  0.68263158  0.67355237  0.35350396  1
  O  O312  1  0.65704964  0.64719046  0.46481595  1
  O  O313  1  0.91215321  0.91402801  0.45775659  1
  C  C314  1  0.61876874  0.88519224  0.49022784  1
  C  C315  1  0.88123148  0.65402510  0.44282140  1
  H  H316  1  0.70399988  0.80595378  0.35651962  1
  H  H317  1  0.57137692  0.87035404  0.44651204  1
  C  C318  1  0.89303481  0.76479656  0.46591236  1
  C  C319  1  0.90504644  0.68882224  0.36373458  1
  C  C320  1  0.91784530  0.56963652  0.34365665  1
  C  C321  1  0.89017827  0.72395642  0.41676929  1
  C  C322  1  0.88006144  0.62950965  0.39319846  1
  H  H323  1  0.91435637  0.86001376  0.41475035  1
  O  O324  1  0.54098690  0.62792578  0.41727756  1
  H  H325  1  0.91060456  0.81683761  0.35914601  1
  C  C326  1  0.77327441  0.79837780  0.29042095  1
  C  C327  1  0.60381006  0.68752644  0.40117351  1
  O  O328  1  0.65826783  0.81458945  0.40553281  1
  C  C329  1  0.79190430  0.93628721  0.27147516  1
  C  C330  1  0.58371284  0.95133016  0.46514960  1
  C  C331  1  0.66445650  0.72121321  0.48783771  1
  O  O332  1  0.90049184  0.72218327  0.49097578  1
  H  H333  1  0.88409739  0.57436161  0.28849271  1
  Cu  Cu334  1  0.55362540  0.50620422  0.45157408  1
  C  C335  1  0.65964528  0.78376619  0.72211995  1
  C  C336  1  0.65000807  0.54541176  0.68806055  1
  C  C337  1  0.60248553  0.68057726  0.70240361  1
  O  O338  1  0.83356666  0.72708999  0.65839272  1
  C  C339  1  0.80431719  0.55200189  0.61975679  1
  O  O340  1  0.75074228  0.73407948  0.72735292  1
  H  H341  1  0.54647223  0.54159061  0.60435432  1
  C  C342  1  0.86926441  0.62543234  0.64048618  1
  C  C343  1  0.69772714  0.60182167  0.62128393  1
  Cu  Cu344  1  0.81650644  0.57714067  0.51515289  1
  H  H345  1  0.66480629  0.67157287  0.63835540  1
  O  O346  1  0.55228284  0.89782010  0.57775538  1
  H  H347  1  0.64877700  0.91980764  0.53286552  1
  C  C348  1  0.62045975  0.97843300  0.51418350  1
  O  O349  1  0.69360636  0.63682840  0.50879292  1
  O  O350  1  0.96457998  0.58064411  0.64177611  1
  O  O351  1  0.62376679  0.91984254  0.73152217  1
  Cu  Cu352  1  0.84968335  0.95159307  0.65445114  1
  H  H353  1  0.73217870  0.51856574  0.69316853  1
  C  C354  1  0.63158154  0.52435588  0.60249082  1
  O  O355  1  0.86374333  0.86908798  0.77196360  1
  O  O356  1  0.61410642  0.62296391  0.78308826  1
  C  C357  1  0.64292001  0.58396795  0.83125291  1
  H  H358  1  0.72905910  0.55534886  0.88238909  1
  H  H359  1  0.52831196  0.80675079  0.92441081  1
  C  C360  1  0.76527955  0.68553759  0.88036002  1
  C  C361  1  0.71341974  0.71582886  0.83215185  1
  C  C362  1  0.83548839  0.75478791  0.89940095  1
  C  C363  1  0.59706932  0.53912552  0.80306490  1
  C  C364  1  0.89728700  0.83149898  0.91366322  1
  C  C365  1  0.96775178  0.92510265  0.93213523  1
  H  H366  1  0.72876875  0.80478440  0.81496246  1
  C  C367  1  0.76812575  0.77278175  0.85553981  1
  H  H368  1  0.84934429  0.92909761  0.96442568  1
  H  H369  1  0.80111164  0.89864540  0.85630329  1
  C  C370  1  0.91982714  0.52557051  0.97490571  1
  C  C371  1  0.50366644  0.90422565  0.88284116  1
  C  C372  1  0.50303884  0.78236025  0.90338884  1
  C  C373  1  0.81669265  0.99460525  0.78301823  1
  C  C374  1  0.92792824  0.97423016  0.95786546  1
  Cu  Cu375  1  0.81559982  0.65902273  0.76034698  1
  C  C376  1  0.54194766  0.99948053  0.98238930  1
  C  C377  1  0.82925205  0.50530267  0.99243258  1
