# generated using pymatgen
data_Cu4H16C32N16ClO8
_symmetry_space_group_name_H-M   'P 1'
_cell_length_a   21.46161733
_cell_length_b   20.10370002
_cell_length_c   18.86126200
_cell_angle_alpha   90.00000000
_cell_angle_beta   90.00000000
_cell_angle_gamma   90.00000000
_symmetry_Int_Tables_number   1
_chemical_formula_structural   Cu4H16C32N16ClO8
_chemical_formula_sum   'Cu32 H128 C256 N128 Cl8 O64'
_cell_volume   8137.84080947
_cell_formula_units_Z   8
loop_
 _symmetry_equiv_pos_site_id
 _symmetry_equiv_pos_as_xyz
  1  'x, y, z'
loop_
 _atom_site_type_symbol
 _atom_site_label
 _atom_site_symmetry_multiplicity
 _atom_site_fract_x
 _atom_site_fract_y
 _atom_site_fract_z
 _atom_site_occupancy
  O  O0  1  0.13495846  0.22966060  0.08130790  1
  C  C1  1  0.41367817  0.13680237  0.15496027  1
  O  O2  1  0.26169626  0.06355774  0.11645785  1
  N  N3  1  0.48835822  0.16276117  0.37952019  1
  Cu  Cu4  1  0.21515266  0.03050625  0.03521954  1
  H  H5  1  0.40488234  0.18879115  0.13882013  1
  C  C6  1  0.47211824  0.11620355  0.17871966  1
  Cu  Cu7  1  0.21532201  0.19428643  0.07825007  1
  C  C8  1  0.37166207  0.02389067  0.16490602  1
  O  O9  1  0.07740159  0.21337774  0.46872478  1
  C  C10  1  0.03234324  0.23508205  0.13279501  1
  C  C11  1  0.09360677  0.20451076  0.12164080  1
  C  C12  1  0.30421206  0.10883725  0.11714781  1
  O  O13  1  0.10011588  0.14813473  0.14774782  1
  C  C14  1  0.36518264  0.09067341  0.14439776  1
  Cu  Cu15  1  0.43154500  0.22079601  0.45463808  1
  C  C16  1  0.00024938  0.06628764  0.28230431  1
  Cu  Cu17  1  0.08773256  0.07182417  0.08484845  1
  C  C18  1  0.47979741  0.04743333  0.19596524  1
  O  O19  1  0.29382092  0.16515921  0.08991108  1
  C  C20  1  0.25119087  0.04295879  0.48008881  1
  H  H21  1  0.00336385  0.07283466  0.40164579  1
  H  H22  1  0.05161138  0.07306704  0.27060024  1
  H  H23  1  0.21585569  0.08305747  0.47851367  1
  C  C24  1  0.31486738  0.05406557  0.49389313  1
  O  O25  1  0.29331120  0.16592555  0.47946852  1
  C  C26  1  0.33325828  0.12546650  0.49091175  1
  N  N27  1  0.00348071  0.01826814  0.09990354  1
  C  C28  1  0.42999849  0.00320350  0.18864367  1
  C  C29  1  0.46776457  0.02465683  0.00827596  1
  H  H30  1  0.32921425  0.07781548  0.93404085  1
  C  C31  1  0.37841229  0.07818634  0.95217753  1
  N  N32  1  0.17892137  0.04000492  0.79819575  1
  C  C33  1  0.05469103  0.22453992  0.52488968  1
  H  H34  1  0.30668487  0.08292025  0.77142877  1
  N  N35  1  0.28856520  0.19887834  0.73832068  1
  O  O36  1  0.38990275  0.14785722  0.50260530  1
  Cu  Cu37  1  0.03428731  0.17667379  0.90015621  1
  N  N38  1  0.10618023  0.14825828  0.84826993  1
  C  C39  1  0.41866123  0.12944848  0.93260319  1
  C  C40  1  0.23282199  0.21482084  0.75990400  1
  C  C41  1  0.11964425  0.24054807  0.71053112  1
  C  C42  1  0.18248222  0.22784138  0.69882484  1
  C  C43  1  0.16635650  0.21554673  0.57077527  1
  H  H44  1  0.25587342  0.21291052  0.62018069  1
  N  N45  1  0.47335187  0.01021915  0.81490126  1
  Cu  Cu46  1  0.11623193  0.05094182  0.86621903  1
  N  N47  1  0.22496524  0.21167711  0.83018848  1
  C  C48  1  0.40353524  0.02363761  0.99087257  1
  C  C49  1  0.20672083  0.21824330  0.62896146  1
  N  N50  1  0.29841771  0.19583533  0.86350572  1
  Cu  Cu51  1  0.15513747  0.12450569  0.76975418  1
  C  C52  1  0.48073291  0.13019143  0.95485677  1
  Cu  Cu53  1  0.16075116  0.20683154  0.90232995  1
  C  C54  1  0.37561028  0.03346346  0.70226388  1
  H  H55  1  0.41441464  0.06942999  0.71206384  1
  C  C56  1  0.10208689  0.22760769  0.58366580  1
  H  H57  1  0.40137397  0.17371941  0.90569451  1
  N  N58  1  0.33414530  0.19092562  0.81371984  1
  C  C59  1  0.31759562  0.03709465  0.73796422  1
  C  C60  1  0.08060637  0.24286290  0.65089538  1
  Cl  Cl61  1  0.19029296  0.12465197  0.98052461  1
  O  O62  1  0.04825206  0.06918109  0.61965132  1
  H  H63  1  0.40833920  0.02307104  0.52612666  1
  Cl  Cl64  1  0.04864224  0.10868712  0.98655809  1
  O  O65  1  0.48792748  0.01267472  0.63812574  1
  O  O66  1  0.48923863  0.23448098  0.90239128  1
  C  C67  1  0.36043909  0.00647539  0.50986083  1
  H  H68  1  0.18040058  0.21336862  0.51371843  1
  N  N69  1  0.33853111  0.34558553  0.02593152  1
  C  C70  1  0.01466351  0.29331615  0.10031915  1
  H  H71  1  0.39328471  0.36161424  0.21977738  1
  N  N72  1  0.24030731  0.37448527  0.07368982  1
  Cu  Cu73  1  0.31497284  0.35412733  0.39594173  1
  C  C74  1  0.44101236  0.37590739  0.23337002  1
  C  C75  1  0.08326670  0.41474352  0.47097078  1
  H  H76  1  0.33950270  0.45871841  0.02678513  1
  C  C77  1  0.43531026  0.32364112  0.35203728  1
  C  C78  1  0.19114069  0.39904649  0.43446637  1
  O  O79  1  0.24688654  0.38914723  0.44911550  1
  N  N80  1  0.29609264  0.43016270  0.32429331  1
  N  N81  1  0.02849824  0.48644897  0.16734281  1
  N  N82  1  0.42188922  0.34211262  0.03135056  1
  O  O83  1  0.37859788  0.31342219  0.34054414  1
  O  O84  1  0.46130153  0.29962233  0.40774379  1
  H  H85  1  0.07081946  0.44370640  0.42396569  1
  C  C86  1  0.46958523  0.35690606  0.29825358  1
  C  C87  1  0.47876384  0.40458074  0.18506057  1
  O  O88  1  0.17648734  0.41924010  0.37332084  1
  N  N89  1  0.28992557  0.35403519  0.09832033  1
  H  H90  1  0.46033882  0.40926694  0.13187929  1
  H  H91  1  0.05110955  0.31664819  0.06651348  1
  N  N92  1  0.33700611  0.44342594  0.28324943  1
  C  C93  1  0.40821324  0.48811622  0.48007402  1
  C  C94  1  0.46146811  0.38872655  0.00905310  1
  Cu  Cu95  1  0.21959135  0.48665802  0.31924398  1
  N  N96  1  0.46267135  0.27351902  0.06924630  1
  C  C97  1  0.14320489  0.39161392  0.49005732  1
  C  C98  1  0.35107187  0.36671687  0.73997609  1
  N  N99  1  0.38941194  0.29151035  0.52232262  1
  C  C100  1  0.43400252  0.45079030  0.97584298  1
  C  C101  1  0.36526134  0.36496455  0.66454565  1
  C  C102  1  0.40093378  0.36660947  0.79027243  1
  O  O103  1  0.32402481  0.35092144  0.62373769  1
  C  C104  1  0.28930937  0.35505732  0.76547512  1
  N  N105  1  0.17082269  0.42117470  0.73104041  1
  N  N106  1  0.10321371  0.30117433  0.88540345  1
  H  H107  1  0.25410532  0.34064898  0.72315916  1
  H  H108  1  0.33321631  0.46913437  0.59453646  1
  N  N109  1  0.13991295  0.43962419  0.81378204  1
  C  C110  1  0.38759909  0.35855044  0.86152859  1
  H  H111  1  0.22569835  0.36297421  0.85460767  1
  C  C112  1  0.32469562  0.35937979  0.88665013  1
  H  H113  1  0.03079174  0.25291202  0.65823828  1
  H  H114  1  0.17241675  0.46964909  0.97380910  1
  H  H115  1  0.10129725  0.25222825  0.76420643  1
  C  C116  1  0.27463436  0.35913886  0.83703804  1
  C  C117  1  0.03558252  0.40409814  0.51854308  1
  N  N118  1  0.34352907  0.28556515  0.55864975  1
  N  N119  1  0.06445058  0.28348132  0.92917040  1
  C  C120  1  0.47204237  0.47854671  0.92027181  1
  C  C121  1  0.15899455  0.36885560  0.55720048  1
  H  H122  1  0.20576346  0.35419465  0.57565126  1
  H  H123  1  0.12466715  0.35179934  0.66225071  1
  Cu  Cu124  1  0.45291389  0.36690986  0.54504603  1
  C  C125  1  0.05039045  0.38383959  0.58798093  1
  N  N126  1  0.08549623  0.38389013  0.86800176  1
  O  O127  1  0.42214837  0.37086456  0.64095301  1
  H  H128  1  0.44783932  0.36644403  0.77162361  1
  C  C129  1  0.11268366  0.36335185  0.60750316  1
  C  C130  1  0.03288096  0.40485577  0.90353943  1
  H  H131  1  0.42687285  0.35905786  0.90168600  1
  N  N132  1  0.19657763  0.47136942  0.71039268  1
  N  N133  1  0.01485565  0.35023579  0.94081691  1
  N  N134  1  0.25150307  0.37872913  0.98098762  1
  C  C135  1  0.30686234  0.35874612  0.96413417  1
  O  O136  1  0.39840489  0.42564847  0.50401542  1
  C  C137  1  0.00039117  0.38628836  0.64576010  1
  C  C138  1  0.37411734  0.48011275  0.98876342  1
  Cl  Cl139  1  0.09372122  0.69382944  0.35051410  1
  H  H140  1  0.43817035  0.62590533  0.11352495  1
  C  C141  1  0.44945718  0.54385161  0.27204728  1
  N  N142  1  0.32079424  0.59044957  0.14563021  1
  O  O143  1  0.11147218  0.65929145  0.12560479  1
  C  C144  1  0.45937554  0.61294659  0.16723800  1
  C  C145  1  0.35209531  0.55468170  0.19218685  1
  N  N146  1  0.14327799  0.54191120  0.31610590  1
  H  H147  1  0.14334830  0.55243860  0.07752556  1
  H  H148  1  0.44350520  0.68372099  0.25884637  1
  Cu  Cu149  1  0.04295080  0.60479700  0.38251035  1
  O  O150  1  0.44055024  0.50122706  0.43148493  1
  N  N151  1  0.02328198  0.59481808  0.22685263  1
  N  N152  1  0.11618769  0.54661879  0.37102185  1
  Cu  Cu153  1  0.07104659  0.68282970  0.23375816  1
  C  C154  1  0.07476686  0.66324087  0.06937476  1
  Cu  Cu155  1  0.17483690  0.71430660  0.14355765  1
  C  C156  1  0.12773838  0.55949820  0.02091440  1
  N  N157  1  0.31546772  0.50728408  0.22001230  1
  C  C158  1  0.42316057  0.57187532  0.21123638  1
  N  N159  1  0.06196586  0.53508030  0.17894712  1
  O  O160  1  0.37238563  0.67604899  0.00444972  1
  N  N161  1  0.24520820  0.57105641  0.14738417  1
  O  O162  1  0.03015227  0.69807765  0.06697061  1
  H  H163  1  0.47120036  0.60568258  0.01423368  1
  H  H164  1  0.41926652  0.51332746  0.30640286  1
  N  N165  1  0.24081571  0.52245042  0.18622520  1
  H  H166  1  0.42983880  0.62003467  0.46757647  1
  C  C167  1  0.41186138  0.72238637  0.27828322  1
  N  N168  1  0.24715789  0.72569263  0.48093165  1
  C  C169  1  0.09532253  0.61853237  0.00780883  1
  H  H170  1  0.34220575  0.70100440  0.20005375  1
  N  N171  1  0.19855487  0.74283857  0.45109521  1
  C  C172  1  0.47740539  0.74077308  0.39453963  1
  C  C173  1  0.35388198  0.73302481  0.24634094  1
  C  C174  1  0.38753670  0.55259725  0.88730346  1
  C  C175  1  0.39780627  0.61005988  0.51074756  1
  H  H176  1  0.45182341  0.52115947  0.70325411  1
  N  N177  1  0.21383623  0.74703161  0.72983894  1
  C  C178  1  0.47024903  0.62259497  0.67002601  1
  N  N179  1  0.18292296  0.53113861  0.77167351  1
  C  C180  1  0.10334088  0.60193248  0.88297639  1
  C  C181  1  0.36275120  0.59904063  0.83339243  1
  O  O182  1  0.39432773  0.62071350  0.78767677  1
  C  C183  1  0.44762393  0.52670073  0.87621026  1
  C  C184  1  0.08077575  0.64113101  0.93894078  1
  C  C185  1  0.38049464  0.54265313  0.52286170  1
  C  C186  1  0.47985819  0.70909686  0.86513048  1
  H  H187  1  0.10100889  0.62095805  0.82771231  1
  C  C188  1  0.13703149  0.54200350  0.89656011  1
  H  H189  1  0.42398792  0.63225152  0.65142207  1
  C  C190  1  0.32424788  0.63682735  0.60353848  1
  O  O191  1  0.30326908  0.61620035  0.84378089  1
  C  C192  1  0.34047316  0.51987689  0.57739236  1
  H  H193  1  0.47484963  0.54070086  0.83024245  1
  O  O194  1  0.35399310  0.73427032  0.90959410  1
  C  C195  1  0.30860038  0.56904936  0.61689059  1
  N  N196  1  0.05423390  0.59273875  0.67544515  1
  C  C197  1  0.36652148  0.65876262  0.55127429  1
  C  C198  1  0.29080270  0.68705032  0.65456396  1
  N  N199  1  0.23101445  0.68471579  0.67389591  1
  H  H200  1  0.06009762  0.68775292  0.93036432  1
  C  C201  1  0.34878040  0.52956884  0.94477744  1
  H  H202  1  0.37921049  0.71377501  0.54625981  1
  H  H203  1  0.27841350  0.55504061  0.66303283  1
  C  C204  1  0.45462961  0.67550762  0.92536297  1
  C  C205  1  0.48862668  0.56042546  0.69636254  1
  H  H206  1  0.30124905  0.54660572  0.94567759  1
  N  N207  1  0.05251643  0.53274022  0.67532881  1
  C  C208  1  0.14535902  0.51675187  0.96627826  1
  Cu  Cu209  1  0.28281419  0.70389199  0.86387303  1
  C  C210  1  0.49481578  0.74234857  0.65134682  1
  N  N211  1  0.31644519  0.74308277  0.68247595  1
  C  C212  1  0.48974929  0.62961690  0.96638380  1
  H  H213  1  0.44891427  0.73924055  0.83486893  1
  C  C214  1  0.39183665  0.69827425  0.95129498  1
  H  H215  1  0.11190780  0.71512729  0.64709675  1
  O  O216  1  0.07303323  0.71045770  0.76270865  1
  C  C217  1  0.15609742  0.50325953  0.82804571  1
  C  C218  1  0.28068426  0.92457597  0.48949957  1
  C  C219  1  0.31165774  0.77907091  0.27375144  1
  H  H220  1  0.28794497  0.85794907  0.35344346  1
  N  N221  1  0.20679519  0.82968001  0.44085502  1
  N  N222  1  0.26783484  0.89515714  0.05184924  1
  N  N223  1  0.31013197  0.85527810  0.04323624  1
  C  C224  1  0.41904883  0.75409344  0.34402197  1
  N  N225  1  0.11844711  0.75761187  0.21567644  1
  C  C226  1  0.09361142  0.89059009  0.48105554  1
  Cu  Cu227  1  0.04961735  0.93090382  0.12681505  1
  O  O228  1  0.21449332  0.82717509  0.26900116  1
  C  C229  1  0.08609101  0.81782975  0.19421075  1
  C  C230  1  0.02009048  0.82578819  0.22156567  1
  C  C231  1  0.25265018  0.79379165  0.23660346  1
  N  N232  1  0.10665767  0.86008438  0.14934669  1
  H  H233  1  0.38678774  0.82290992  0.42491776  1
  N  N234  1  0.13801924  0.94185646  0.36580942  1
  Cu  Cu235  1  0.18002079  0.87584647  0.09777691  1
  N  N236  1  0.14116333  0.88266739  0.43353621  1
  C  C237  1  0.37754933  0.80288934  0.36956037  1
  Cu  Cu238  1  0.14499858  0.78462702  0.31373229  1
  H  H239  1  0.04189128  0.89291952  0.31927618  1
  Cl  Cl240  1  0.13811150  0.97697684  0.08810448  1
  N  N241  1  0.29906166  0.97268290  0.02963832  1
  C  C242  1  0.48759647  0.82620530  0.05044374  1
  C  C243  1  0.32161550  0.81554744  0.33634973  1
  C  C244  1  0.25748276  0.85055282  0.47771540  1
  H  H245  1  0.43369736  0.95205998  0.20729747  1
  N  N246  1  0.05808388  0.93948700  0.45423412  1
  H  H247  1  0.44006789  0.80280397  0.04291331  1
  O  O248  1  0.24256763  0.76826714  0.17604397  1
  C  C249  1  0.35723913  0.96730861  0.01015956  1
  N  N250  1  0.08766075  0.96790008  0.37640396  1
  C  C251  1  0.00756174  0.87122078  0.28224439  1
  H  H252  1  0.33581874  0.98852537  0.15569605  1
  N  N253  1  0.49730148  0.78084854  0.44682775  1
  H  H254  1  0.18800706  0.95858695  0.46475019  1
  Cl  Cl255  1  0.13423344  0.83570856  0.00069659  1
  N  N256  1  0.37456013  0.90014939  0.00991575  1
  C  C257  1  0.23652109  0.97566704  0.47744247  1
  H  H258  1  0.48795834  0.98546097  0.04219994  1
  H  H259  1  0.34987076  0.88610358  0.61608337  1
  H  H260  1  0.24613820  0.89465526  0.68863089  1
  O  O261  1  0.00696717  0.79107993  0.79011202  1
  Cl  Cl262  1  0.10011638  0.96892527  0.93417451  1
  O  O263  1  0.45909781  0.91529916  0.59162536  1
  N  N264  1  0.48325291  0.86256677  0.85533115  1
  C  C265  1  0.44795509  0.97026082  0.63081835  1
  N  N266  1  0.26206766  0.77878479  0.73870740  1
  Cu  Cu267  1  0.03751846  0.89040043  0.98609294  1
  C  C268  1  0.05146934  0.79527857  0.67718200  1
  C  C269  1  0.10906638  0.79291501  0.56732776  1
  N  N270  1  0.21950942  0.92804486  0.82384803  1
  H  H271  1  0.07168188  0.98311888  0.71661739  1
  C  C272  1  0.33677929  0.92923767  0.65107565  1
  H  H273  1  0.01876680  0.93188163  0.58053415  1
  Cl  Cl274  1  0.23064922  0.79452193  0.88340910  1
  N  N275  1  0.40706367  0.86604154  0.93380408  1
  C  C276  1  0.27100022  0.98921289  0.73626068  1
  N  N277  1  0.41913712  0.85218732  0.80616375  1
  O  O278  1  0.44217800  0.75287768  0.63428650  1
  C  C279  1  0.02272837  0.98455752  0.73811996  1
  Cu  Cu280  1  0.27606528  0.86068798  0.80719322  1
  Cu  Cu281  1  0.17404195  0.89312706  0.90368603  1
  C  C282  1  0.28106286  0.93599896  0.68877115  1
  H  H283  1  0.14786675  0.76925710  0.53496793  1
  C  C284  1  0.04509599  0.76043056  0.74757757  1
  N  N285  1  0.37327860  0.85987082  0.84574998  1
  C  C286  1  0.46930568  0.86521068  0.92504522  1
  C  C287  1  0.09175064  0.76205029  0.63035394  1
  H  H288  1  0.04025198  0.91910970  0.82361295  1
  C  C289  1  0.21461500  0.98621423  0.79188762  1
  C  C290  1  0.00605695  0.95100535  0.79951832  1
  C  C291  1  0.03674242  0.88380799  0.59725361  1
  C  C292  1  0.38372319  0.97670877  0.66207552  1
  C  C293  1  0.08021033  0.85403274  0.54867014  1
  C  C294  1  0.02212567  0.85521733  0.66151279  1
  C  C295  1  0.34289308  0.93928547  0.50691204  1
  H  H296  1  0.37457681  0.89906621  0.52376164  1
  N  N297  1  0.28646796  0.79829698  0.50471464  1
  N  N298  1  0.57119956  0.10323482  0.32547226  1
  C  C299  1  0.98479397  0.03292151  0.15543296  1
  O  O300  1  0.83163643  0.05386004  0.44284781  1
  C  C301  1  0.67404580  0.11423030  0.47511570  1
  C  C302  1  0.57704617  0.16504809  0.29387229  1
  H  H303  1  0.70653106  0.13450992  0.08803273  1
  O  O304  1  0.92120486  0.07946439  0.49191237  1
  C  C305  1  0.66859433  0.23544618  0.10509289  1
  O  O306  1  0.72702198  0.22182563  0.00237582  1
  H  H307  1  0.59306656  0.05454133  0.44135098  1
  H  H308  1  0.89632708  0.20814848  0.21626068  1
  C  C309  1  0.93159979  0.22986546  0.18386543  1
  H  H310  1  0.66406818  0.16018517  0.44219464  1
  C  C311  1  0.65445254  0.14468407  0.18817996  1
  C  C312  1  0.88576947  0.06395792  0.43518212  1
  H  H313  1  0.66395232  0.09259675  0.20152967  1
  H  H314  1  0.51192386  0.15064700  0.18389320  1
  C  C315  1  0.87115790  0.04802778  0.30656311  1
  N  N316  1  0.50715116  0.10490087  0.37809363  1
  N  N317  1  0.53369096  0.20415410  0.32228345  1
  C  C318  1  0.89298069  0.03955757  0.23711380  1
  C  C319  1  0.67690704  0.16791329  0.12333767  1
  C  C320  1  0.95790564  0.05168755  0.22526037  1
  N  N321  1  0.76060688  0.16315591  0.33590520  1
  N  N322  1  0.76971766  0.18308086  0.27578976  1
  C  C323  1  0.80483171  0.06529252  0.03869340  1
  C  C324  1  0.83902095  0.12282442  0.05396102  1
  N  N325  1  0.58071471  0.03358631  0.27295187  1
  C  C326  1  0.91208169  0.06175836  0.36221306  1
  C  C327  1  0.61702675  0.18781461  0.23090473  1
  H  H328  1  0.82156153  0.03603393  0.31826415  1
  N  N329  1  0.80502424  0.21412864  0.39033181  1
  H  H330  1  0.99715459  0.14776711  0.18968824  1
  C  C331  1  0.98697340  0.19713444  0.16923010  1
  C  C332  1  0.54627765  0.01855646  0.21301883  1
  O  O333  1  0.76963581  0.06180778  0.15421046  1
  C  C334  1  0.77266526  0.02958980  0.10085965  1
  H  H335  1  0.83511920  0.15132703  0.10605188  1
  C  C336  1  0.97760428  0.06830952  0.35098624  1
  C  C337  1  0.63591070  0.05787794  0.47261617  1
  H  H338  1  0.86425575  0.02287828  0.19311638  1
  N  N339  1  0.79215338  0.22495517  0.48821585  1
  N  N340  1  0.82505754  0.24651309  0.28062584  1
  N  N341  1  0.65597901  0.00304976  0.26371943  1
  H  H342  1  0.55455116  0.08130172  0.00886464  1
  H  H343  1  0.89464503  0.20295298  0.00883603  1
  C  C344  1  0.86711238  0.12656367  0.93120810  1
  H  H345  1  0.60204244  0.06429808  0.69498314  1
  C  C346  1  0.61679302  0.15821600  0.74762045  1
  C  C347  1  0.72792055  0.06816492  0.57669364  1
  C  C348  1  0.59480775  0.11714480  0.69141364  1
  C  C349  1  0.83383295  0.06581812  0.92019603  1
  O  O350  1  0.99518102  0.23009162  0.53821218  1
  H  H351  1  0.83237245  0.04487844  0.86573238  1
  C  C352  1  0.64426076  0.12846003  0.81586865  1
  C  C353  1  0.64570342  0.00568006  0.51980436  1
  Cu  Cu354  1  0.94610515  0.15612729  0.53360950  1
  N  N355  1  0.95591492  0.17627753  0.84646632  1
  C  C356  1  0.89660821  0.15796566  0.86207460  1
  N  N357  1  0.58251054  0.01574038  0.79448832  1
  N  N358  1  0.89882833  0.20601859  0.74233477  1
  O  O359  1  0.57379039  0.20265909  0.94923119  1
  C  C360  1  0.77380167  0.17370179  0.53039475  1
  N  N361  1  0.66425442  0.04909166  0.91478994  1
  N  N362  1  0.85800752  0.16943512  0.80836252  1
  N  N363  1  0.80837898  0.17469082  0.59009546  1
  N  N364  1  0.66452795  0.16410108  0.87283795  1
  H  H365  1  0.76118912  0.08224283  0.61811641  1
  Cu  Cu366  1  0.74188909  0.22548449  0.90360708  1
  N  N367  1  0.64659085  0.06297764  0.82860169  1
  C  C368  1  0.72297882  0.11864272  0.52416609  1
  C  C369  1  0.55603981  0.21730976  0.62948459  1
  H  H370  1  0.54340083  0.11391582  0.59392431  1
  H  H371  1  0.88211297  0.04656164  0.69311720  1
  C  C372  1  0.51584683  0.19188819  0.93476555  1
  N  N373  1  0.67057169  0.10384423  0.94085465  1
  C  C374  1  0.56424644  0.14705509  0.63545603  1
  C  C375  1  0.69169214  0.00582969  0.57226408  1
  O  O376  1  0.95058252  0.10665300  0.61982873  1
  N  N377  1  0.51306631  0.05278800  0.80236881  1
  N  N378  1  0.95266145  0.21121274  0.76304282  1
  C  C379  1  0.91565719  0.02023117  0.72741993  1
  C  C380  1  0.97983037  0.02590894  0.70609400  1
  C  C381  1  0.50684280  0.07781136  0.99209527  1
  C  C382  1  0.61238534  0.22909763  0.73812052  1
  C  C383  1  0.99665400  0.06684650  0.64366099  1
  N  N384  1  0.85943744  0.24043829  0.58712080  1
  C  C385  1  0.87102568  0.15503115  0.99862408  1
  H  H386  1  0.73252457  0.23348801  0.68444426  1
  O  O387  1  0.50290918  0.21577238  0.51559443  1
  Cu  Cu388  1  0.98169085  0.02662002  0.99856650  1
  C  C389  1  0.52577965  0.24843870  0.56941930  1
  C  C390  1  0.80402186  0.03042048  0.97543012  1
  H  H391  1  0.99573823  0.42080469  0.34629898  1
  H  H392  1  0.94754190  0.31887588  0.29377949  1
  O  O393  1  0.68154336  0.31927281  0.02038652  1
  N  N394  1  0.51641360  0.29094124  0.06958581  1
  C  C395  1  0.56712938  0.40728259  0.26310848  1
  N  N396  1  0.70317565  0.43117159  0.47907243  1
  C  C397  1  0.85312791  0.32534926  0.16596695  1
  N  N398  1  0.62653152  0.48886511  0.13743441  1
  C  C399  1  0.94680193  0.40646231  0.36051361  1
  C  C400  1  0.85039796  0.43326542  0.43223965  1
  C  C401  1  0.53136649  0.37727599  0.31389769  1
  C  C402  1  0.83265977  0.36699519  0.41592255  1
  H  H403  1  0.62120078  0.32966320  0.13044412  1
  C  C404  1  0.63416143  0.27868918  0.14955560  1
  H  H405  1  0.83202065  0.47691755  0.12683624  1
  C  C406  1  0.86724888  0.32341788  0.37162381  1
  C  C407  1  0.91326385  0.28984093  0.14920548  1
  N  N408  1  0.51942182  0.37182816  0.03086721  1
  H  H409  1  0.78844160  0.34444037  0.44068138  1
  N  N410  1  0.82437385  0.37316661  0.12714307  1
  H  H411  1  0.55409033  0.36455316  0.36563296  1
  N  N412  1  0.75262716  0.38834241  0.16661560  1
  C  C413  1  0.83140250  0.25898076  0.35068898  1
  C  C414  1  0.54241022  0.41996753  0.19585647  1
  C  C415  1  0.91132693  0.44679924  0.40539082  1
  C  C416  1  0.95392889  0.32050612  0.10160888  1
  N  N417  1  0.74963101  0.35509794  0.22056587  1
  C  C418  1  0.92218402  0.34381647  0.33820529  1
  C  C419  1  0.80883407  0.49733038  0.01650026  1
  H  H420  1  0.61680298  0.41649458  0.27447560  1
  C  C421  1  0.57936367  0.44715175  0.13202957  1
  H  H422  1  0.94484320  0.36309115  0.06911610  1
  N  N423  1  0.56589413  0.43513469  0.06438826  1
  N  N424  1  0.82064857  0.31387349  0.22374296  1
  N  N425  1  0.67026966  0.46262719  0.40154601  1
  N  N426  1  0.61454412  0.45439734  0.40271821  1
  N  N427  1  0.82301664  0.36901190  0.03325555  1
  H  H428  1  0.99915662  0.49573767  0.02025196  1
  H  H429  1  0.57634130  0.28845564  0.24139926  1
  C  C430  1  0.69583199  0.26180708  0.04068033  1
  C  C431  1  0.60846504  0.25563283  0.21192973  1
  H  H432  1  0.82012829  0.47045960  0.46103858  1
  N  N433  1  0.60355353  0.40824810  0.48001486  1
  N  N434  1  0.62596920  0.46951581  0.01318349  1
  N  N435  1  0.84962549  0.27061844  0.53177767  1
  Cu  Cu436  1  0.70282357  0.34838842  0.93280185  1
  C  C437  1  0.67086107  0.39210817  0.71923805  1
  C  C438  1  0.69782015  0.30876605  0.60168367  1
  H  H439  1  0.70259100  0.27726959  0.55474451  1
  N  N440  1  0.56135286  0.37398029  0.82821667  1
  O  O441  1  0.51907057  0.30986389  0.57195688  1
  C  C442  1  0.73013270  0.31216560  0.79308911  1
  N  N443  1  0.90623195  0.41452966  0.72725928  1
  C  C444  1  0.70371289  0.33321410  0.72320577  1
  N  N445  1  0.95135315  0.43201304  0.65329776  1
  C  C446  1  0.65099625  0.41069070  0.65216198  1
  Cu  Cu447  1  0.62527812  0.25404437  0.89372330  1
  H  H448  1  0.66346539  0.42215644  0.77018243  1
  H  H449  1  0.51901497  0.45622191  0.91696948  1
  N  N450  1  0.93229151  0.36892450  0.75648073  1
  C  C451  1  0.65766141  0.40708287  0.51691539  1
  C  C452  1  0.66968230  0.37223749  0.59482667  1
  H  H453  1  0.56960343  0.31367697  0.67723509  1
  N  N454  1  0.53257355  0.43073567  0.76582279  1
  O  O455  1  0.72362657  0.35783507  0.83779632  1
  C  C456  1  0.71365855  0.28422793  0.67096338  1
  C  C457  1  0.81647116  0.42303732  0.98943747  1
  N  N458  1  0.81914739  0.40054570  0.92335043  1
  N  N459  1  0.83809288  0.31840544  0.92007684  1
  H  H460  1  0.62594857  0.45932107  0.64253588  1
  O  O461  1  0.75026278  0.25531057  0.80917037  1
  N  N462  1  0.59452403  0.40721042  0.86763147  1
  N  N463  1  0.99734934  0.34821214  0.70261778  1
  H  H464  1  0.84844306  0.48284096  0.67915242  1
  H  H465  1  0.99197830  0.46243638  0.79065734  1
  N  N466  1  0.83677342  0.29882422  0.98109363  1
  H  H467  1  0.98746518  0.42050481  0.50452571  1
  C  C468  1  0.98626718  0.49858340  0.83554277  1
  C  C469  1  0.57726937  0.25847467  0.68376997  1
  H  H470  1  0.63153869  0.25663916  0.78354240  1
  N  N471  1  0.59495003  0.48874911  0.83407984  1
  C  C472  1  0.55927884  0.49129185  0.77438277  1
  H  H473  1  0.73091036  0.48379832  0.64670071  1
  C  C474  1  0.99931298  0.47331401  0.90455372  1
  H  H475  1  0.54671719  0.66978547  0.15246505  1
  H  H476  1  0.82421271  0.59800651  0.16446892  1
  O  O477  1  0.91430618  0.54859103  0.46184393  1
  C  C478  1  0.83878188  0.69143066  0.29018438  1
  N  N479  1  0.51244517  0.68559082  0.38936468  1
  C  C480  1  0.79614931  0.62574694  0.05598414  1
  H  H481  1  0.82017975  0.74171558  0.27901885  1
  H  H482  1  0.92532445  0.70956002  0.23457181  1
  C  C483  1  0.96691222  0.56704607  0.23660347  1
  C  C484  1  0.81453037  0.58092057  0.10878445  1
  C  C485  1  0.81769539  0.51369372  0.08730866  1
  O  O486  1  0.63529461  0.66942183  0.25350779  1
  C  C487  1  0.79642741  0.69746068  0.07947235  1
  O  O488  1  0.81067285  0.71006049  0.13910677  1
  N  N489  1  0.57314402  0.69015597  0.44672426  1
  C  C490  1  0.89618033  0.67111660  0.26504675  1
  Cu  Cu491  1  0.64116419  0.61039842  0.43081356  1
  C  C492  1  0.91122118  0.60333767  0.27446724  1
  C  C493  1  0.81584076  0.58032756  0.34260738  1
  C  C494  1  0.54196941  0.60845764  0.25014361  1
  C  C495  1  0.80289131  0.64854553  0.33347460  1
  C  C496  1  0.60174184  0.62587267  0.28382038  1
  O  O497  1  0.62504805  0.59494132  0.33478813  1
  C  C498  1  0.86987659  0.55911243  0.31093356  1
  C  C499  1  0.74471354  0.67187076  0.36769454  1
  H  H500  1  0.78430244  0.54822881  0.37523658  1
  O  O501  1  0.71547893  0.72562215  0.35613824  1
  O  O502  1  0.72144558  0.63256383  0.41236329  1
  H  H503  1  0.52989339  0.54184350  0.34193783  1
  C  C504  1  0.51875175  0.63513933  0.18714392  1
  O  O505  1  0.78817293  0.74202260  0.02996636  1
  C  C506  1  0.50920262  0.56127996  0.29197058  1
  C  C507  1  0.94369056  0.50929625  0.42772787  1
  N  N508  1  0.96094227  0.50637818  0.20548478  1
  O  O509  1  0.99996821  0.52266357  0.40577139  1
  H  H510  1  0.88580198  0.50740565  0.31441369  1
  H  H511  1  0.95385814  0.60709288  0.00632556  1
  N  N512  1  0.56236745  0.74239755  0.47921784  1
  N  N513  1  0.65506791  0.50471131  0.05358434  1
  H  H514  1  0.77208487  0.64308226  0.94032137  1
  C  C515  1  0.92734139  0.66975309  0.88437446  1
  C  C516  1  0.82671074  0.52207945  0.64724752  1
  C  C517  1  0.57778629  0.66455536  0.69106248  1
  N  N518  1  0.65056255  0.54830631  0.85613788  1
  C  C519  1  0.78465843  0.60902060  0.98452140  1
  C  C520  1  0.57309621  0.64356726  0.87901009  1
  C  C521  1  0.95223420  0.60103791  0.89072784  1
  C  C522  1  0.96418081  0.56376180  0.82793290  1
  C  C523  1  0.87027978  0.56871861  0.62468087  1
  C  C524  1  0.94068350  0.56879585  0.64355872  1
  N  N525  1  0.97707521  0.51141461  0.64702100  1
  C  C526  1  0.63571973  0.61577428  0.84986001  1
  N  N527  1  0.72060431  0.53925041  0.80890805  1
  O  O528  1  0.91710728  0.70522050  0.93924237  1
  C  C529  1  0.96414412  0.57676716  0.96041433  1
  C  C530  1  0.53884574  0.69334175  0.84269290  1
  H  H531  1  0.55150890  0.71673574  0.79090522  1
  N  N532  1  0.73787301  0.59546286  0.79390088  1
  C  C533  1  0.51540210  0.67315134  0.67121018  1
  N  N534  1  0.67797661  0.64812270  0.81718344  1
  C  C535  1  0.84677375  0.62426808  0.58197557  1
  C  C536  1  0.59404367  0.60438604  0.71851214  1
  H  H537  1  0.61067204  0.70657882  0.68012161  1
  C  C538  1  0.76394296  0.52233624  0.62526084  1
  C  C539  1  0.78433303  0.62725074  0.56122160  1
  H  H540  1  0.78014842  0.52610537  0.91000821  1
  H  H541  1  0.95202226  0.58176311  0.77634838  1
  O  O542  1  0.91697443  0.68930262  0.82366461  1
  H  H543  1  0.76521716  0.67021008  0.53114779  1
  C  C544  1  0.98988931  0.51310232  0.96700861  1
  C  C545  1  0.54990218  0.61320222  0.94146414  1
  H  H546  1  0.87846087  0.66402706  0.56693091  1
  C  C547  1  0.54851252  0.55243817  0.72728344  1
  C  C548  1  0.79079213  0.54404067  0.96412342  1
  H  H549  1  0.64169464  0.59463444  0.73249012  1
  C  C550  1  0.67543131  0.57687614  0.56777594  1
  C  C551  1  0.74373192  0.57487951  0.58191600  1
  O  O552  1  0.65831399  0.62321943  0.52494564  1
  O  O553  1  0.63861120  0.53734369  0.59192179  1
  N  N554  1  0.97807100  0.62105150  0.65388541  1
  O  O555  1  0.79033864  0.73423487  0.86863716  1
  Cu  Cu556  1  0.84335697  0.74025470  0.95226738  1
  H  H557  1  0.57561960  0.56960665  0.96185669  1
  N  N558  1  0.57963513  0.97982293  0.17266795  1
  C  C559  1  0.61308169  0.86587458  0.04542712  1
  O  O560  1  0.79357096  0.86120336  0.21998219  1
  H  H561  1  0.50880164  0.79300634  0.15515557  1
  O  O562  1  0.81617968  0.90833000  0.32285602  1
  C  C563  1  0.94769754  0.88251184  0.30284651  1
  O  O564  1  0.61314460  0.79722696  0.22082931  1
  N  N565  1  0.90911250  0.90550916  0.03490844  1
  H  H566  1  0.87046972  0.79277961  0.17560524  1
  H  H567  1  0.98039485  0.75804776  0.14061416  1
  C  C568  1  0.89833360  0.85794066  0.25884735  1
  O  O569  1  0.75590524  0.96931259  0.10073359  1
  Cu  Cu570  1  0.73255591  0.91181666  0.17240934  1
  O  O571  1  0.69005245  0.83625073  0.15536686  1
  N  N572  1  0.65559175  0.97513081  0.20603993  1
  C  C573  1  0.63171504  0.82335906  0.16436451  1
  H  H574  1  0.93918724  0.91675766  0.34965916  1
  C  C575  1  0.58956309  0.83398923  0.10561475  1
  C  C576  1  0.91163301  0.81347427  0.20284268  1
  C  C577  1  0.83358019  0.88039144  0.26942849  1
  O  O578  1  0.56834475  0.94954268  0.46017108  1
  H  H579  1  0.66006402  0.88292352  0.04871091  1
  C  C580  1  0.52602013  0.81716448  0.10948648  1
  C  C581  1  0.97067115  0.79275768  0.18552075  1
  Cu  Cu582  1  0.65927269  0.75392264  0.28824558  1
  N  N583  1  0.86242560  0.88683439  0.00370057  1
  H  H584  1  0.84861347  0.98004398  0.80288309  1
  H  H585  1  0.58867314  0.91882654  0.94464432  1
  N  N586  1  0.95881105  0.93441903  0.97220073  1
  C  C587  1  0.60569134  0.94601855  0.50755162  1
  O  O588  1  0.83491215  0.78658497  0.77766803  1
  O  O589  1  0.60805525  0.89263111  0.54915934  1
  H  H590  1  0.99181291  0.88282574  0.69935944  1
  H  H591  1  0.77809599  0.87791306  0.74032665  1
  Cu  Cu592  1  0.92335346  0.77650687  0.78351178  1
  C  C593  1  0.62713324  0.90091117  0.80872644  1
  C  C594  1  0.92682707  0.92939756  0.90440151  1
  H  H595  1  0.58262852  0.82876495  0.88505608  1
  C  C596  1  0.67968364  0.80667669  0.85979778  1
  C  C597  1  0.51047857  0.86408353  0.99289138  1
  N  N598  1  0.87158671  0.90398615  0.91176448  1
  Cu  Cu599  1  0.53027460  0.86353807  0.58463680  1
  C  C600  1  0.73278899  0.81685748  0.81606262  1
  C  C601  1  0.62431152  0.84322401  0.85302407  1
  C  C602  1  0.67953783  0.91230514  0.76293551  1
  C  C603  1  0.79010978  0.77756097  0.82052801  1
  C  C604  1  0.73307427  0.87032787  0.76612143  1
  C  C605  1  0.57537421  0.94884190  0.80653739  1
  H  H606  1  0.68045636  0.76480707  0.89969248  1
  C  C607  1  0.94601196  0.95265794  0.83214483  1
  C  C608  1  0.57346065  0.88621822  0.98968216  1
  O  O609  1  0.53780049  0.79037110  0.64338336  1
  H  H610  1  0.67872879  0.95732637  0.72730586  1
  N  N611  1  0.51674415  0.93700179  0.82032394  1
  Cl  Cl612  1  0.78484400  0.98919686  0.69313820  1
  H  H613  1  0.69389411  0.96336302  0.60680714  1
  C  C614  1  0.89902342  0.98330462  0.78907982  1
  H  H615  1  0.78226634  0.97927386  0.97095067  1
