# generated using pymatgen
data_Cu3H10C26(NO3)4
_symmetry_space_group_name_H-M   'P 1'
_cell_length_a   15.50407929
_cell_length_b   13.62890241
_cell_length_c   26.75625546
_cell_angle_alpha   90.00000000
_cell_angle_beta   90.00000000
_cell_angle_gamma   90.00000000
_symmetry_Int_Tables_number   1
_chemical_formula_structural   Cu3H10C26(NO3)4
_chemical_formula_sum   'Cu18 H60 C156 N24 O72'
_cell_volume   5653.69266254
_cell_formula_units_Z   6
loop_
 _symmetry_equiv_pos_site_id
 _symmetry_equiv_pos_as_xyz
  1  'x, y, z'
loop_
 _atom_site_type_symbol
 _atom_site_label
 _atom_site_symmetry_multiplicity
 _atom_site_fract_x
 _atom_site_fract_y
 _atom_site_fract_z
 _atom_site_occupancy
  C  C0  1  0.06927131  0.08905875  0.06245067  1
  Cu  Cu1  1  0.29273219  0.31005043  0.08939104  1
  C  C2  1  0.17966974  0.28519794  0.21384389  1
  C  C3  1  0.36891515  0.14479239  0.05070243  1
  O  O4  1  0.43470014  0.15447557  0.02336013  1
  O  O5  1  0.08008340  0.32000534  0.15117432  1
  C  C6  1  0.24895673  0.22659022  0.22600333  1
  C  C7  1  0.36189953  0.05082847  0.07580532  1
  O  O8  1  0.20196549  0.25270909  0.12755024  1
  O  O9  1  0.30335838  0.20341932  0.04969960  1
  H  H10  1  0.23262887  0.08141457  0.11149744  1
  O  O11  1  0.14285919  0.45821803  0.03959345  1
  O  O12  1  0.27713390  0.42358637  0.12389494  1
  O  O13  1  0.04074173  0.36493354  0.00269951  1
  C  C14  1  0.15419238  0.28690391  0.16178115  1
  N  N15  1  0.13976534  0.09799578  0.04609348  1
  H  H16  1  0.28080730  0.18581827  0.19600952  1
  O  O17  1  0.48632463  0.35161588  0.01397628  1
  C  C18  1  0.28780384  0.03055756  0.10360234  1
  C  C19  1  0.12184520  0.03899904  0.00438824  1
  H  H20  1  0.01366017  0.39479741  0.03123920  1
  H  H21  1  0.08691418  0.40040873  0.23560236  1
  C  C22  1  0.12396929  0.40002720  0.00566128  1
  C  C23  1  0.13800669  0.34740679  0.24779252  1
  Cu  Cu24  1  0.00244407  0.21479563  0.14070898  1
  O  O25  1  0.06877032  0.47683446  0.31698590  1
  N  N26  1  0.30122573  0.10109646  0.34060437  1
  C  C27  1  0.45166950  0.36596544  0.42928435  1
  C  C28  1  0.32885160  0.13173861  0.29547205  1
  C  C29  1  0.23694303  0.28466147  0.31090973  1
  C  C30  1  0.04011232  0.06414688  0.42822807  1
  C  C31  1  0.17051569  0.34892465  0.29611878  1
  C  C32  1  0.39439752  0.00041695  0.27116266  1
  O  O33  1  0.01691271  0.14515950  0.43566403  1
  H  H34  1  0.25954310  0.28055696  0.35042144  1
  C  C35  1  0.27311675  0.21933390  0.27636346  1
  C  C36  1  0.13014368  0.41862687  0.33302318  1
  O  O37  1  0.15683176  0.41817620  0.37456596  1
  C  C38  1  0.32265892  0.01260252  0.35393621  1
  H  H39  1  0.41152487  0.22764085  0.46961318  1
  C  C40  1  0.41177281  0.44736608  0.45867032  1
  C  C41  1  0.13171693  0.03164321  0.44394096  1
  C  C42  1  0.18077344  0.09550991  0.47344390  1
  C  C43  1  0.49951939  0.38689669  0.38544533  1
  C  C44  1  0.44833082  0.26550698  0.44038299  1
  N  N45  1  0.48889950  0.19918818  0.41146660  1
  N  N46  1  0.38125745  0.09317002  0.26087727  1
  H  H47  1  0.15234015  0.16373690  0.48904691  1
  C  C48  1  0.25641240  0.05634718  0.49326325  1
  O  O49  1  0.36715541  0.43776640  0.49498485  1
  N  N50  1  0.38560119  0.07786088  0.53957652  1
  H  H51  1  0.29262071  0.32380564  0.59530946  1
  O  O52  1  0.25154009  0.24644825  0.71694859  1
  C  C53  1  0.32145414  0.25335688  0.58159047  1
  N  N54  1  0.27644556  0.20497604  0.54764624  1
  H  H55  1  0.23199426  0.41662996  0.71619224  1
  O  O56  1  0.42731790  0.35401450  0.65463798  1
  H  H57  1  0.39766361  0.04290711  0.65364868  1
  C  C58  1  0.31193408  0.11775335  0.52893327  1
  C  C59  1  0.40421439  0.22043976  0.59432481  1
  C  C60  1  0.43197857  0.13194700  0.56889718  1
  O  O61  1  0.35729455  0.09571127  0.73443378  1
  C  C62  1  0.45426961  0.27238856  0.63358947  1
  C  C63  1  0.17865276  0.24331364  0.73533540  1
  C  C64  1  0.16655586  0.42558542  0.73311323  1
  O  O65  1  0.14140145  0.16185991  0.74436295  1
  Cu  Cu66  1  0.49428363  0.45141949  0.68773294  1
  H  H67  1  0.49176948  0.08993379  0.57417957  1
  C  C68  1  0.12936986  0.33465824  0.74480164  1
  O  O69  1  0.43687599  0.05815087  0.79949377  1
  H  H70  1  0.29736663  0.44980048  0.98578193  1
  C  C71  1  0.40940034  0.39546848  0.91165949  1
  C  C72  1  0.31877986  0.35312992  0.92178321  1
  C  C73  1  0.20139842  0.24917727  0.90048698  1
  O  O74  1  0.47180192  0.01398155  0.89982381  1
  C  C75  1  0.14770199  0.29215367  0.93620009  1
  H  H76  1  0.01699666  0.46174456  0.87492772  1
  C  C77  1  0.18275567  0.36554664  0.96756702  1
  H  H78  1  0.25013319  0.44436616  0.82446709  1
  O  O79  1  0.21405433  0.13102186  0.83472045  1
  C  C80  1  0.26813361  0.39496785  0.96041983  1
  C  C81  1  0.41676802  0.06052667  0.92472710  1
  H  H82  1  0.08197788  0.26599074  0.94428362  1
  H  H83  1  0.32961278  0.24635939  0.86037572  1
  C  C84  1  0.28664156  0.27865433  0.89184808  1
  O  O85  1  0.08994247  0.14713440  0.87589407  1
  C  C86  1  0.16388901  0.17102930  0.86925023  1
  N  N87  1  0.41193817  0.48737753  0.92681603  1
  C  C88  1  0.27366688  0.04746436  0.96541258  1
  N  N89  1  0.47459709  0.34241396  0.89196510  1
  O  O90  1  0.41363276  0.15199599  0.92428164  1
  H  H91  1  0.27540637  0.12949081  0.95977804  1
  O  O92  1  0.34789062  0.34844095  0.77325394  1
  Cu  Cu93  1  0.45319151  0.24914554  0.97070556  1
  C  C94  1  0.40283493  0.41784340  0.77753454  1
  Cu  Cu95  1  0.18477476  0.04907434  0.77921876  1
  C  C96  1  0.04951606  0.32997582  0.76830219  1
  C  C97  1  0.00440071  0.41648148  0.77710616  1
  H  H98  1  0.01623244  0.26211707  0.77983298  1
  N  N99  1  0.04920975  0.00453975  0.97949735  1
  Cu  Cu100  1  0.35434615  0.22710536  0.75256890  1
  O  O101  1  0.47111944  0.41587795  0.75265649  1
  C  C102  1  0.35135326  0.00064697  0.95031096  1
  C  C103  1  0.42063313  0.04898546  0.75194313  1
  C  C104  1  0.32675593  0.68076623  0.11229295  1
  H  H105  1  0.35460656  0.67521081  0.07448977  1
  N  N106  1  0.27846705  0.94164907  0.11741096  1
  C  C107  1  0.27616770  0.77319160  0.18346935  1
  C  C108  1  0.26071882  0.59417234  0.18351315  1
  C  C109  1  0.31728862  0.77250707  0.13753727  1
  N  N110  1  0.41408852  0.88157603  0.08779891  1
  C  C111  1  0.29572875  0.59776947  0.13448431  1
  H  H112  1  0.49137626  0.98750356  0.05848623  1
  C  C113  1  0.33865796  0.87163646  0.11026953  1
  H  H114  1  0.26150776  0.84521690  0.19977149  1
  C  C115  1  0.25029338  0.68423855  0.20651888  1
  Cu  Cu116  1  0.20143482  0.57474307  0.03031306  1
  C  C117  1  0.42545092  0.97315960  0.07465866  1
  H  H118  1  0.43381853  0.95863004  0.24325715  1
  H  H119  1  0.16960990  0.83942525  0.01112700  1
  O  O120  1  0.24129118  0.69589448  0.01947655  1
  C  C121  1  0.29324100  0.50602732  0.10401643  1
  O  O122  1  0.30166574  0.51653224  0.05784880  1
  H  H123  1  0.24107422  0.52637867  0.20304083  1
  C  C124  1  0.35850591  0.95330279  0.31464384  1
  O  O125  1  0.32288785  0.77908332  0.47052914  1
  Cu  Cu126  1  0.49031066  0.70797714  0.29240856  1
  O  O127  1  0.33526864  0.79953516  0.35043099  1
  C  C128  1  0.36626545  0.84840235  0.31277059  1
  C  C129  1  0.22919943  0.90617950  0.45461425  1
  O  O130  1  0.40593015  0.80158154  0.27925285  1
  Cu  Cu131  1  0.21739599  0.76586379  0.35022683  1
  O  O132  1  0.19337661  0.60764196  0.28087784  1
  O  O133  1  0.20963043  0.76564478  0.27975740  1
  Cu  Cu134  1  0.38945631  0.66094576  0.46039677  1
  C  C135  1  0.28365253  0.95967901  0.48548957  1
  O  O136  1  0.21216794  0.74530829  0.41968031  1
  H  H137  1  0.11882612  0.88840204  0.40640876  1
  Cu  Cu138  1  0.07552580  0.60795606  0.29984261  1
  H  H139  1  0.30315515  0.98973975  0.39141752  1
  C  C140  1  0.25615559  0.80330572  0.44551815  1
  C  C141  1  0.15497643  0.93636016  0.42996738  1
  O  O142  1  0.43058050  0.54021008  0.44578714  1
  C  C143  1  0.21316177  0.68430202  0.25697990  1
  N  N144  1  0.49490706  0.94114272  0.63747400  1
  H  H145  1  0.34213031  0.70457781  0.74278574  1
  H  H146  1  0.34036168  0.92647645  0.50438078  1
  C  C147  1  0.47288696  0.98966258  0.71967886  1
  N  N148  1  0.24005197  0.62531098  0.73361916  1
  C  C149  1  0.44823041  0.99463022  0.66789346  1
  H  H150  1  0.49317727  0.77908555  0.57182905  1
  C  C151  1  0.15732001  0.61829050  0.74496535  1
  C  C152  1  0.12338980  0.50939380  0.74585649  1
  O  O153  1  0.47224184  0.70580381  0.50252932  1
  C  C154  1  0.26941299  0.59192317  0.85442625  1
  O  O155  1  0.36904182  0.69715251  0.98481547  1
  C  C156  1  0.41227989  0.66073777  0.84303204  1
  C  C157  1  0.32696337  0.66900893  0.86264089  1
  C  C158  1  0.26754073  0.86630828  0.79682829  1
  H  H159  1  0.30714261  0.73365441  0.88492572  1
  H  H160  1  0.08093222  0.81533310  0.79548476  1
  C  C161  1  0.08077579  0.68422648  0.92432332  1
  C  C162  1  0.43697995  0.57897161  0.81495946  1
  C  C163  1  0.22515644  0.78330364  0.77526123  1
  C  C164  1  0.13456754  0.76789726  0.77963453  1
  Cu  Cu165  1  0.42402346  0.94719931  0.84024340  1
  N  N166  1  0.15976334  0.68078650  0.90529619  1
  H  H167  1  0.06105485  0.74236944  0.95158568  1
  O  O168  1  0.44111433  0.81713735  0.87215087  1
  C  C169  1  0.22055157  0.89395782  0.99537516  1
  C  C170  1  0.18035679  0.59684232  0.88266238  1
  O  O171  1  0.22164869  0.93723560  0.81457709  1
  H  H172  1  0.00279767  0.57870466  0.77172139  1
  O  O173  1  0.34780400  0.87860681  0.79542056  1
  H  H174  1  0.48706450  0.60263220  0.92627472  1
  H  H175  1  0.42231262  0.86337883  0.95081739  1
  C  C176  1  0.36359371  0.90153462  0.95836828  1
  C  C177  1  0.29801910  0.84784328  0.98168518  1
  N  N178  1  0.10215255  0.68365354  0.76596398  1
  C  C179  1  0.02357474  0.60742315  0.91373219  1
  C  C180  1  0.48610034  0.52448292  0.91589634  1
  C  C181  1  0.30465257  0.74036998  0.99407287  1
  N  N182  1  0.13755657  0.51520392  0.87286974  1
  C  C183  1  0.47367072  0.74203540  0.84996901  1
  C  C184  1  0.20945870  0.99210325  0.98587390  1
  C  C185  1  0.27150661  0.70530299  0.75082095  1
  C  C186  1  0.05640375  0.53017448  0.88237939  1
  C  C187  1  0.37662543  0.50613722  0.80529642  1
  C  C188  1  0.03702892  0.50853794  0.76353706  1
  C  C189  1  0.29228786  0.51118337  0.82579163  1
  O  O190  1  0.92222613  0.29054106  0.10622677  1
  C  C191  1  0.63004982  0.29530113  0.04406586  1
  C  C192  1  0.91617999  0.06471580  0.09052142  1
  H  H193  1  0.86290767  0.19019887  0.02944536  1
  Cu  Cu194  1  0.78592955  0.29301048  0.20943693  1
  Cu  Cu195  1  0.75719838  0.06438881  0.13026669  1
  H  H196  1  0.83786399  0.06657867  0.19544122  1
  O  O197  1  0.88513757  0.23059445  0.23398549  1
  C  C198  1  0.64898693  0.23276071  0.00372326  1
  O  O199  1  0.67804102  0.22985149  0.20179733  1
  C  C200  1  0.84351681  0.31067166  0.11309274  1
  O  O201  1  0.81581625  0.35883894  0.15037131  1
  C  C202  1  0.98524310  0.05723011  0.05430823  1
  C  C203  1  0.77949585  0.28142460  0.07624983  1
  C  C204  1  0.80004947  0.22068282  0.03618017  1
  C  C205  1  0.65900023  0.14007381  0.20792320  1
  C  C206  1  0.69402927  0.31539295  0.07942190  1
  O  O207  1  0.84068337  0.03570539  0.08214064  1
  H  H208  1  0.67673628  0.37113711  0.10812253  1
  C  C209  1  0.82662456  0.03547518  0.23255374  1
  O  O210  1  0.66856326  0.07724187  0.17416369  1
  O  O211  1  0.93441635  0.10309688  0.13241028  1
  C  C212  1  0.54573272  0.35257581  0.04870973  1
  O  O213  1  0.53333549  0.39746165  0.08649249  1
  C  C214  1  0.97792637  0.00809228  0.00618092  1
  C  C215  1  0.73265267  0.19226385  0.00267259  1
  H  H216  1  0.86553083  0.07305920  0.35551348  1
  C  C217  1  0.84139840  0.03505463  0.32329890  1
  C  C218  1  0.57691561  0.14957118  0.34016017  1
  O  O219  1  0.89928056  0.22173605  0.31626631  1
  C  C220  1  0.84623850  0.08230747  0.27635272  1
  N  N221  1  0.53682506  0.32230957  0.35747803  1
  C  C222  1  0.57544355  0.04697455  0.34987442  1
  H  H223  1  0.58834325  0.25976701  0.28006965  1
  C  C224  1  0.59983241  0.18120274  0.29129933  1
  C  C225  1  0.53172141  0.22666167  0.36997274  1
  C  C226  1  0.88113369  0.18669336  0.27673591  1
  H  H227  1  0.55483209  0.02030966  0.38587852  1
  C  C228  1  0.61698868  0.00840892  0.26490221  1
  H  H229  1  0.50856632  0.46095910  0.37074298  1
  N  N230  1  0.61953437  0.49020815  0.48290035  1
  C  C231  1  0.62389434  0.10885894  0.25673515  1
  O  O232  1  0.52172253  0.23505368  0.64432149  1
  H  H233  1  0.53110808  0.44811013  0.53158135  1
  O  O234  1  0.52987023  0.49400573  0.62435264  1
  C  C235  1  0.59580724  0.48467208  0.52961880  1
  C  C236  1  0.54958519  0.37820024  0.88288745  1
  N  N237  1  0.82848805  0.10616311  0.94139380  1
  C  C238  1  0.75189038  0.11755586  0.96197699  1
  H  H239  1  0.59306626  0.32344471  0.86517395  1
  H  H240  1  0.59866837  0.21276217  0.97580260  1
  O  O241  1  0.87279576  0.47133441  0.82094386  1
  Cu  Cu242  1  0.80754782  0.49377453  0.88149299  1
  C  C243  1  0.91720043  0.39648640  0.80464794  1
  O  O244  1  0.89197183  0.31648764  0.81134833  1
  C  C245  1  0.56246028  0.47698177  0.89482290  1
  N  N246  1  0.67994771  0.06960459  0.95040866  1
  C  C247  1  0.83035043  0.04798646  0.90205707  1
  C  C248  1  0.68229921  0.00514123  0.91362693  1
  H  H249  1  0.89654630  0.04565188  0.88828075  1
  O  O250  1  0.69223710  0.49436566  0.85572820  1
  N  N251  1  0.75095087  0.78595611  0.20670384  1
  C  C252  1  0.68967689  0.76793621  0.12266034  1
  C  C253  1  0.70630940  0.86290374  0.11167923  1
  C  C254  1  0.76154152  0.87730677  0.19132331  1
  H  H255  1  0.69424725  0.66272064  0.18713892  1
  C  C256  1  0.71293535  0.73488010  0.17131793  1
  C  C257  1  0.63428966  0.70724702  0.08343507  1
  O  O258  1  0.63398319  0.61898400  0.08730002  1
  O  O259  1  0.60104804  0.74294669  0.04355134  1
  N  N260  1  0.74557865  0.91812400  0.14657687  1
  H  H261  1  0.69314819  0.89584312  0.07539670  1
  H  H262  1  0.64225355  0.94867101  0.23868153  1
  C  C263  1  0.79404027  0.94026325  0.23600930  1
  C  C264  1  0.79611739  0.58856079  0.32838537  1
  H  H265  1  0.75808400  0.81591571  0.28404869  1
  C  C266  1  0.84914376  0.58435659  0.37080353  1
  C  C267  1  0.64652519  0.58979313  0.29714134  1
  O  O268  1  0.57248509  0.70358001  0.44424365  1
  C  C269  1  0.71069242  0.57258278  0.33940606  1
  O  O270  1  0.85945681  0.83079762  0.49705231  1
  O  O271  1  0.96560024  0.64043478  0.32488024  1
  H  H272  1  0.82246153  0.60526140  0.28984830  1
  O  O273  1  0.67575499  0.59811988  0.25674346  1
  C  C274  1  0.58663962  0.87794204  0.33114769  1
  H  H275  1  0.86117795  0.55088027  0.45131309  1
  O  O276  1  0.75341942  0.81342062  0.37424546  1
  O  O277  1  0.81542665  0.93650765  0.41351716  1
  Cu  Cu278  1  0.91564461  0.91366980  0.45058898  1
  Cu  Cu279  1  0.66387889  0.75755164  0.40962516  1
  C  C280  1  0.80722350  0.94145242  0.32472350  1
  C  C281  1  0.81728784  0.55756228  0.41748776  1
  C  C282  1  0.72927046  0.54534004  0.42744478  1
  C  C283  1  0.79072420  0.89154435  0.37332843  1
  H  H284  1  0.72040998  0.75613865  0.48338480  1
  C  C285  1  0.67420515  0.55477372  0.38578366  1
  H  H286  1  0.60304282  0.55055168  0.38920014  1
  O  O287  1  0.56082676  0.59440313  0.30358413  1
  C  C288  1  0.78592475  0.88821990  0.28189064  1
  O  O289  1  0.58115127  0.81682464  0.29655664  1
  O  O290  1  0.58390440  0.85352332  0.37728132  1
  C  C291  1  0.54907908  0.72664768  0.48857411  1
  C  C292  1  0.69612723  0.52950239  0.48123299  1
  O  O293  1  0.98771817  0.62608437  0.40549518  1
  C  C294  1  0.94168807  0.61220487  0.36933315  1
  C  C295  1  0.59190499  0.98096361  0.31320489  1
  O  O296  1  0.98632617  0.99640963  0.41347968  1
  O  O297  1  0.87506249  0.86896769  0.57655586  1
  C  C298  1  0.56203742  0.88224497  0.65456006  1
  C  C299  1  0.60937676  0.84135341  0.60849717  1
  C  C300  1  0.56104798  0.79653784  0.57093293  1
  C  C301  1  0.83099426  0.84218399  0.54190652  1
  H  H302  1  0.77540052  0.59386540  0.58539466  1
  H  H303  1  0.74058704  0.88087022  0.63353155  1
  N  N304  1  0.75246030  0.56804352  0.51390284  1
  N  N305  1  0.58557307  0.87051388  0.70034464  1
  C  C306  1  0.54544166  0.92816079  0.73056688  1
  C  C307  1  0.60237141  0.77211830  0.52699491  1
  C  C308  1  0.70061706  0.84676968  0.60358735  1
  C  C309  1  0.73777303  0.82456623  0.55729572  1
  C  C310  1  0.64482236  0.52277015  0.57021785  1
  C  C311  1  0.72648639  0.56417651  0.56036524  1
  C  C312  1  0.69231065  0.78329071  0.51829402  1
  C  C313  1  0.61068860  0.52020467  0.62196677  1
  O  O314  1  0.65004776  0.55394181  0.65758783  1
  O  O315  1  0.64159284  0.62562002  0.89518522  1
  O  O316  1  0.69241625  0.86632658  0.83621806  1
  C  C317  1  0.93195068  0.60216198  0.92933850  1
  O  O318  1  0.89113790  0.66795907  0.95020412  1
  C  C319  1  0.76303396  0.91392275  0.84658748  1
  O  O320  1  0.82944145  0.88964798  0.82755111  1
  Cu  Cu321  1  0.66275228  0.74226786  0.86186515  1
  O  O322  1  0.54840787  0.73977740  0.83416665  1
  H  H323  1  0.56824735  0.91959023  0.77063244  1
  H  H324  1  0.50186746  0.57268846  0.80049152  1
  C  C325  1  0.63314321  0.53672402  0.88150388  1
  C  C326  1  0.76061020  0.98718367  0.88893258  1
  O  O327  1  0.89512376  0.51857564  0.91904253  1
  H  H328  1  0.91862179  0.98077884  0.98636821  1
  H  H329  1  0.61649842  0.97515210  0.90689424  1
