# generated using pymatgen
data_Cu3H14C26(NO3)4
_symmetry_space_group_name_H-M   'P 1'
_cell_length_a   12.02323334
_cell_length_b   11.14538288
_cell_length_c   35.80312675
_cell_angle_alpha   90.00000000
_cell_angle_beta   90.00000000
_cell_angle_gamma   90.00000000
_symmetry_Int_Tables_number   1
_chemical_formula_structural   Cu3H14C26(NO3)4
_chemical_formula_sum   'Cu18 H84 C156 N24 O72'
_cell_volume   4797.74569297
_cell_formula_units_Z   6
loop_
 _symmetry_equiv_pos_site_id
 _symmetry_equiv_pos_as_xyz
  1  'x, y, z'
loop_
 _atom_site_type_symbol
 _atom_site_label
 _atom_site_symmetry_multiplicity
 _atom_site_fract_x
 _atom_site_fract_y
 _atom_site_fract_z
 _atom_site_occupancy
  C  C0  1  0.01116153  0.36309963  0.06029238  1
  H  H1  1  0.18058373  0.05622339  0.16192392  1
  C  C2  1  0.38124076  0.34639321  0.03824342  1
  C  C3  1  0.26277530  0.12732197  0.22252476  1
  C  C4  1  0.30373114  0.34293777  0.23140621  1
  C  C5  1  0.38699245  0.21413676  0.18811425  1
  H  H6  1  0.35007689  0.01886150  0.18495816  1
  H  H7  1  0.42702714  0.39645040  0.19677149  1
  H  H8  1  0.41029960  0.05465175  0.12720557  1
  H  H9  1  0.30279946  0.42819912  0.24735755  1
  C  C10  1  0.46111001  0.22231926  0.15471881  1
  N  N11  1  0.34070386  0.10640164  0.19631703  1
  N  N12  1  0.38119918  0.32585221  0.20578316  1
  O  O13  1  0.35732070  0.43826959  0.06105850  1
  H  H14  1  0.20533261  0.14999348  0.03257994  1
  C  C15  1  0.03618522  0.02781160  0.00626779  1
  C  C16  1  0.11212414  0.29014950  0.05815189  1
  H  H17  1  0.19319740  0.31535815  0.07227770  1
  C  C18  1  0.24055402  0.24004664  0.24076449  1
  N  N19  1  0.12907276  0.19431846  0.03679461  1
  O  O20  1  0.32301336  0.26005852  0.03437538  1
  C  C21  1  0.03109233  0.15603349  0.02293415  1
  O  O22  1  0.06674238  0.24755703  0.16830600  1
  C  C23  1  0.48486967  0.35690003  0.01723104  1
  H  H24  1  0.22080232  0.03834786  0.22763415  1
  C  C25  1  0.02179737  0.06707748  0.13458811  1
  C  C26  1  0.01152712  0.47258791  0.08227803  1
  C  C27  1  0.00506824  0.19477817  0.14892997  1
  H  H28  1  0.10113274  0.48735637  0.23932477  1
  C  C29  1  0.46529771  0.13270771  0.12655440  1
  C  C30  1  0.11854031  0.01052144  0.14496037  1
  O  O31  1  0.18720859  0.18612674  0.42673462  1
  H  H32  1  0.05663120  0.25890939  0.37718214  1
  O  O33  1  0.39753267  0.25800219  0.47177504  1
  C  C34  1  0.13935375  0.26208839  0.44880080  1
  O  O35  1  0.16596992  0.27476096  0.48166101  1
  C  C36  1  0.05219087  0.33828725  0.43170914  1
  O  O37  1  0.35557016  0.08581946  0.35880530  1
  O  O38  1  0.36334858  0.04096431  0.41937290  1
  O  O39  1  0.13073778  0.37401960  0.28815512  1
  Cu  Cu40  1  0.35919814  0.36955263  0.43768611  1
  C  C41  1  0.01621608  0.33006779  0.39420853  1
  Cu  Cu42  1  0.23351241  0.04477172  0.44945034  1
  C  C43  1  0.35019271  0.01786232  0.38362846  1
  H  H44  1  0.05594135  0.35036246  0.29292906  1
  O  O45  1  0.10087880  0.16644347  0.27903391  1
  C  C46  1  0.15737234  0.24793905  0.27113923  1
  O  O47  1  0.30355291  0.48894059  0.40869760  1
  C  C48  1  0.00089900  0.42079216  0.45463667  1
  H  H49  1  0.01614972  0.40965888  0.48481392  1
  O  O50  1  0.09319803  0.31929940  0.59170589  1
  Cu  Cu51  1  0.18254446  0.15185295  0.51991492  1
  H  H52  1  0.39882324  0.06980936  0.69628586  1
  H  H53  1  0.39446627  0.13219167  0.60810478  1
  C  C54  1  0.27561385  0.29629352  0.61222912  1
  H  H55  1  0.03670739  0.27557696  0.57602948  1
  C  C56  1  0.27616804  0.41656781  0.62740628  1
  C  C57  1  0.36945140  0.22275500  0.61796555  1
  C  C58  1  0.18276243  0.24660886  0.59076211  1
  O  O59  1  0.40396719  0.37426312  0.51901438  1
  O  O60  1  0.18420691  0.14912433  0.57307929  1
  N  N61  1  0.44998901  0.27364793  0.63649001  1
  C  C62  1  0.44296788  0.38919478  0.64963460  1
  C  C63  1  0.43128194  0.27662233  0.50546851  1
  N  N64  1  0.35984918  0.46454132  0.64390549  1
  H  H65  1  0.21355057  0.48856246  0.62393313  1
  C  C66  1  0.11544557  0.23487898  0.83425022  1
  O  O67  1  0.42326743  0.26628005  0.81295529  1
  N  N68  1  0.21759245  0.43490996  0.95427411  1
  H  H69  1  0.26098580  0.33818556  0.83421209  1
  H  H70  1  0.43013409  0.12805482  0.93341635  1
  Cu  Cu71  1  0.35775361  0.12072143  0.80221954  1
  O  O72  1  0.11055096  0.03184486  0.84564498  1
  C  C73  1  0.12267152  0.37295702  0.95310226  1
  H  H74  1  0.27892707  0.38808279  0.96705655  1
  C  C75  1  0.04382405  0.42073861  0.92869705  1
  H  H76  1  0.12084342  0.29100086  0.97012426  1
  C  C77  1  0.00186438  0.23057139  0.82982026  1
  C  C78  1  0.17234508  0.34287955  0.83135700  1
  O  O79  1  0.27736337  0.11614576  0.84588018  1
  C  C80  1  0.16813438  0.11893061  0.84442546  1
  C  C81  1  0.48118280  0.31419506  0.78638500  1
  O  O82  1  0.38816929  0.02520918  0.76249728  1
  C  C83  1  0.11655856  0.44957438  0.82151077  1
  O  O84  1  0.43952566  0.34973185  0.75770641  1
  H  H85  1  0.45465478  0.17693509  0.99711837  1
  C  C86  1  0.00273360  0.44557117  0.81522135  1
  C  C87  1  0.42177546  0.80640126  0.14020303  1
  N  N88  1  0.24211466  0.82246647  0.18103074  1
  O  O89  1  0.40787633  0.85992715  0.01045624  1
  H  H90  1  0.12692688  0.97207272  0.05264980  1
  O  O91  1  0.24109474  0.79239276  0.05884260  1
  C  C92  1  0.18582519  0.74536933  0.03141123  1
  H  H93  1  0.31466755  0.77025372  0.23004659  1
  O  O94  1  0.18212931  0.63603207  0.02341467  1
  Cu  Cu95  1  0.36596178  0.87184235  0.06291012  1
  C  C96  1  0.32841383  0.78429389  0.19955673  1
  C  C97  1  0.11748258  0.82638193  0.00973162  1
  H  H98  1  0.01537556  0.87222223  0.24009050  1
  C  C99  1  0.05617016  0.83000021  0.10958515  1
  H  H100  1  0.16828317  0.82982906  0.19571848  1
  C  C101  1  0.09975582  0.94616268  0.02478609  1
  C  C102  1  0.25088381  0.84837179  0.14297512  1
  C  C103  1  0.42820521  0.77764819  0.17974215  1
  N  N104  1  0.33663767  0.84273456  0.12059323  1
  H  H105  1  0.07795603  0.73962722  0.10291709  1
  C  C106  1  0.13401253  0.89195220  0.13062655  1
  Cu  Cu107  1  0.23380241  0.52261608  0.05812332  1
  C  C108  1  0.04181734  0.67436381  0.23440909  1
  O  O109  1  0.11037284  0.51204847  0.08971253  1
  O  O110  1  0.49099112  0.94965217  0.07868354  1
  H  H111  1  0.49897159  0.79644277  0.12323998  1
  C  C112  1  0.32165680  0.80786888  0.40120654  1
  O  O113  1  0.36746400  0.62399753  0.44939782  1
  C  C114  1  0.29343273  0.68816721  0.39123465  1
  H  H115  1  0.26360333  0.93915110  0.31614599  1
  C  C116  1  0.47906689  0.62533996  0.31554697  1
  C  C117  1  0.22765137  0.74880430  0.32922844  1
  O  O118  1  0.28154117  0.91552187  0.47598050  1
  C  C119  1  0.31855345  0.59851165  0.41880244  1
  C  C120  1  0.23876633  0.65985914  0.35709684  1
  C  C121  1  0.27099071  0.86687225  0.33685921  1
  C  C122  1  0.31773720  0.88927710  0.37300811  1
  C  C123  1  0.15870223  0.72476678  0.29330442  1
  H  H124  1  0.21325860  0.56831879  0.34961600  1
  H  H125  1  0.36245128  0.83272408  0.42961104  1
  N  N126  1  0.10662142  0.82140992  0.28118936  1
  N  N127  1  0.15979384  0.60949119  0.28025055  1
  H  H128  1  0.41651781  0.76999616  0.49180814  1
  H  H129  1  0.20032140  0.54278658  0.29492245  1
  Cu  Cu130  1  0.38985476  0.51476345  0.48888107  1
  O  O131  1  0.46044018  0.58716912  0.28198475  1
  O  O132  1  0.46938454  0.73053960  0.32360982  1
  C  C133  1  0.09893983  0.57904495  0.25082866  1
  C  C134  1  0.05447635  0.79383440  0.25066264  1
  C  C135  1  0.31831410  0.87441173  0.57404720  1
  C  C136  1  0.38757815  0.97364032  0.68682453  1
  N  N137  1  0.38910540  0.75430821  0.66668515  1
  C  C138  1  0.32318244  0.85508390  0.53603618  1
  C  C139  1  0.39294847  0.88132857  0.71519725  1
  C  C140  1  0.39127120  0.76023316  0.70345229  1
  C  C141  1  0.39246117  0.84813738  0.64065791  1
  H  H142  1  0.39547413  0.68175808  0.72139917  1
  H  H143  1  0.39363338  0.66871686  0.65580511  1
  C  C144  1  0.24929814  0.91863447  0.50909850  1
  N  N145  1  0.38950611  0.96324033  0.65072424  1
  C  C146  1  0.47057984  0.72117630  0.54773211  1
  H  H147  1  0.25798884  0.94312143  0.58451753  1
  C  C148  1  0.40492707  0.78011620  0.52172521  1
  C  C149  1  0.39020951  0.81972338  0.59967730  1
  C  C150  1  0.47139327  0.74266066  0.58598708  1
  H  H151  1  0.46171705  0.50902719  0.71402296  1
  O  O152  1  0.17588265  0.98514572  0.52308631  1
  H  H153  1  0.30568253  0.71958631  0.97530020  1
  H  H154  1  0.01681531  0.56859712  0.88579232  1
  C  C155  1  0.43105300  0.57547575  0.90373464  1
  H  H156  1  0.19028946  0.64797105  0.88575236  1
  H  H157  1  0.28175545  0.68245541  0.82055040  1
  O  O158  1  0.39751675  0.84130016  0.78156030  1
  O  O159  1  0.11053543  0.65232414  0.80083567  1
  C  C160  1  0.36526126  0.68534967  0.95648197  1
  C  C161  1  0.47158750  0.73981198  0.95985807  1
  H  H162  1  0.06152939  0.68995355  0.97084115  1
  C  C163  1  0.16499340  0.57464157  0.81475481  1
  C  C164  1  0.34547778  0.60075810  0.92939136  1
  N  N165  1  0.16668750  0.58540230  0.90513029  1
  C  C166  1  0.39279229  0.91545200  0.75479315  1
  O  O167  1  0.27226511  0.60091137  0.82706818  1
  C  C168  1  0.05951240  0.78381073  0.97914670  1
  C  C169  1  0.06884109  0.52432281  0.90688466  1
  C  C170  1  0.23244841  0.53324222  0.93048068  1
  C  C171  1  0.48628092  0.83165558  0.98805772  1
  H  H172  1  0.41866678  0.50048180  0.88339588  1
  H  H173  1  0.42851123  0.99159259  0.88761525  1
  C  C174  1  0.91505115  0.31408270  0.04417724  1
  H  H175  1  0.83124865  0.34894296  0.04422705  1
  H  H176  1  0.87639214  0.06755995  0.10183371  1
  O  O177  1  0.73238769  0.33832718  0.21813948  1
  C  C178  1  0.53871965  0.31620846  0.14845965  1
  C  C179  1  0.75097132  0.42862548  0.23700662  1
  O  O180  1  0.90247588  0.22955181  0.14229774  1
  C  C181  1  0.67713063  0.42984062  0.10880561  1
  C  C182  1  0.60278486  0.23981962  0.08945721  1
  C  C183  1  0.60314638  0.32749031  0.11690394  1
  H  H184  1  0.86434757  0.17891332  0.01192524  1
  Cu  Cu185  1  0.81929446  0.28850548  0.17713684  1
  H  H186  1  0.65122992  0.24999669  0.06362283  1
  C  C187  1  0.54588687  0.04379205  0.06920234  1
  N  N188  1  0.93018896  0.21238490  0.02709058  1
  O  O189  1  0.72506261  0.45216956  0.07798298  1
  C  C190  1  0.55520260  0.45632232  0.01828599  1
  H  H191  1  0.53685835  0.39135802  0.16815020  1
  C  C192  1  0.53258545  0.13973649  0.09627820  1
  O  O193  1  0.61742464  0.04432147  0.04318966  1
  O  O194  1  0.69660790  0.49545710  0.13666191  1
  C  C195  1  0.94596971  0.01010516  0.11059228  1
  N  N196  1  0.90080815  0.31332810  0.31715683  1
  H  H197  1  0.50544749  0.08500940  0.46957634  1
  C  C198  1  0.76416157  0.20666489  0.39848970  1
  H  H199  1  0.88152333  0.12162254  0.48234850  1
  H  H200  1  0.50874975  0.36795553  0.30665560  1
  C  C201  1  0.81332693  0.42307928  0.27211282  1
  C  C202  1  0.91047183  0.41261841  0.33879096  1
  H  H203  1  0.76704645  0.18625583  0.36896773  1
  H  H204  1  0.91717429  0.22749292  0.32823030  1
  C  C205  1  0.81924759  0.13624931  0.42575545  1
  H  H206  1  0.66885794  0.42043901  0.45839767  1
  H  H207  1  0.83056564  0.22527735  0.27065984  1
  C  C208  1  0.84826815  0.31163309  0.28474758  1
  N  N209  1  0.59880199  0.34645727  0.35462120  1
  C  C210  1  0.64078634  0.38554931  0.38826115  1
  C  C211  1  0.54031087  0.09852036  0.49763530  1
  C  C212  1  0.71942509  0.34272938  0.45037494  1
  C  C213  1  0.77789322  0.27325677  0.47532926  1
  C  C214  1  0.71317479  0.31152906  0.41266146  1
  C  C215  1  0.83489508  0.17151362  0.46223168  1
  H  H216  1  0.60307966  0.26266177  0.34347929  1
  C  C217  1  0.94185469  0.41418756  0.37880745  1
  C  C218  1  0.54339535  0.41556865  0.33179387  1
  C  C219  1  0.87393126  0.02315143  0.41363557  1
  C  C220  1  0.91773597  0.49770782  0.44028699  1
  C  C221  1  0.80446463  0.19961856  0.71318097  1
  C  C222  1  0.78267959  0.29882384  0.51553883  1
  H  H223  1  0.64339549  0.40993838  0.61178622  1
  C  C224  1  0.55863120  0.20243901  0.55750005  1
  H  H225  1  0.86999367  0.30431771  0.64279300  1
  C  C226  1  0.69414580  0.13549194  0.60583731  1
  O  O227  1  0.86903590  0.27733205  0.71996599  1
  O  O228  1  0.84065997  0.23968996  0.53776087  1
  H  H229  1  0.66401442  0.39729629  0.74048962  1
  C  C230  1  0.63652183  0.11608550  0.56824266  1
  N  N231  1  0.77449030  0.21920626  0.60733735  1
  H  H232  1  0.81019724  0.26256727  0.58201747  1
  C  C233  1  0.80720319  0.23316292  0.64204877  1
  C  C234  1  0.76571399  0.17052303  0.67433539  1
  C  C235  1  0.67040325  0.02303548  0.54413310  1
  C  C236  1  0.67385026  0.09207094  0.66975170  1
  O  O237  1  0.71631892  0.38000609  0.52689087  1
  H  H238  1  0.54393948  0.27939329  0.57615851  1
  N  N239  1  0.64324222  0.07305289  0.63444221  1
  O  O240  1  0.75222761  0.13475820  0.74233022  1
  O  O241  1  0.80857729  0.47648487  0.59393089  1
  C  C242  1  0.62223578  0.01903278  0.50796637  1
  C  C243  1  0.54954621  0.45058797  0.66473829  1
  H  H244  1  0.52610258  0.23026501  0.64154039  1
  H  H245  1  0.58007277  0.01214663  0.63250090  1
  H  H246  1  0.62961858  0.04313502  0.69191184  1
  C  C247  1  0.50959321  0.19167299  0.52258458  1
  C  C248  1  0.63924104  0.45586863  0.63978491  1
  C  C249  1  0.93139497  0.36677150  0.92474994  1
  N  N250  1  0.71311510  0.15582999  0.92334800  1
  C  C251  1  0.82172809  0.33052816  0.81167523  1
  H  H252  1  0.78321297  0.19215364  0.93594462  1
  C  C253  1  0.58271657  0.26371017  0.96375269  1
  C  C254  1  0.71037827  0.08125353  0.89368232  1
  C  C255  1  0.61921795  0.01802773  0.87911075  1
  H  H256  1  0.79628374  0.26631944  0.86175389  1
  C  C257  1  0.60745605  0.17118444  0.93408826  1
  C  C258  1  0.94567446  0.33733845  0.81934350  1
  C  C259  1  0.64596897  0.27792175  0.83067613  1
  C  C260  1  0.65132962  0.36526064  0.96438385  1
  N  N261  1  0.75078316  0.28274722  0.83782087  1
  C  C262  1  0.50418079  0.25984849  0.99307188  1
  C  C263  1  0.68199894  0.35963514  0.76886854  1
  H  H264  1  0.71631696  0.37611773  0.94380802  1
  H  H265  1  0.60049406  0.23780557  0.85473687  1
  C  C266  1  0.60787951  0.31093971  0.79471464  1
  C  C267  1  0.63918526  0.45753704  0.99171058  1
  H  H268  1  0.95476588  0.14405218  0.83255268  1
  O  O269  1  0.90341047  0.27183376  0.93848154  1
  H  H270  1  0.79644495  0.06557255  0.88394068  1
  N  N271  1  0.79095810  0.37337966  0.77850512  1
  O  O272  1  0.86188964  0.43063597  0.90414458  1
  H  H273  1  0.92070073  0.04788863  0.95853730  1
  H  H274  1  0.78065594  0.18729659  0.76397815  1
  N  N275  1  0.50957048  0.11636251  0.92212223  1
  H  H276  1  0.85182192  0.41094695  0.76054115  1
  C  C277  1  0.50967163  0.04397687  0.89386538  1
  O  O278  1  0.72250397  0.63235840  0.02073529  1
  O  O279  1  0.78548270  0.88828258  0.06995172  1
  Cu  Cu280  1  0.76318149  0.72930539  0.17810957  1
  O  O281  1  0.55395399  0.71632214  0.22554445  1
  C  C282  1  0.87905207  0.83747990  0.07492766  1
  C  C283  1  0.96469440  0.89341200  0.09713170  1
  O  O284  1  0.90139980  0.74059880  0.05767596  1
  Cu  Cu285  1  0.68526582  0.89696902  0.03000492  1
  O  O286  1  0.71507247  0.53358316  0.22637741  1
  O  O287  1  0.91325648  0.74720928  0.18882956  1
  C  C288  1  0.96555525  0.65782927  0.20306336  1
  Cu  Cu289  1  0.82089895  0.59002598  0.06299371  1
  O  O290  1  0.61971885  0.75034463  0.16808026  1
  Cu  Cu291  1  0.82185423  0.51825419  0.16405891  1
  O  O292  1  0.92814283  0.52307689  0.09460803  1
  C  C293  1  0.53968041  0.74346847  0.19149036  1
  O  O294  1  0.95919265  0.55750350  0.18741329  1
  H  H295  1  0.54304338  0.52593696  0.03966436  1
  O  O296  1  0.79997957  0.66413660  0.45331802  1
  C  C297  1  0.85794778  0.57548539  0.46676592  1
  H  H298  1  0.79781252  0.62291441  0.28359981  1
  O  O299  1  0.91836830  0.96285243  0.44169133  1
  C  C300  1  0.66391011  0.92625186  0.48067397  1
  C  C301  1  0.83125461  0.53327221  0.29185225  1
  Cu  Cu302  1  0.85154591  0.81587998  0.44869210  1
  H  H303  1  0.65540117  0.53994388  0.42007446  1
  O  O304  1  0.62028771  0.91911920  0.45111299  1
  O  O305  1  0.75750091  0.86976615  0.48752712  1
  Cu  Cu306  1  0.57860215  0.57470755  0.25027428  1
  H  H307  1  0.89661525  0.59691182  0.33941048  1
  C  C308  1  0.56913497  0.58383511  0.37656343  1
  H  H309  1  0.55723580  0.66986755  0.38976712  1
  C  C310  1  0.52806387  0.53802555  0.34276118  1
  H  H311  1  0.84025870  0.57084917  0.38919083  1
  C  C312  1  0.89910718  0.50780277  0.40171952  1
  N  N313  1  0.88349136  0.52236297  0.32369008  1
  N  N314  1  0.62507046  0.50256268  0.39554023  1
  O  O315  1  0.53169379  0.59493066  0.49928373  1
  O  O316  1  0.86809886  0.98072422  0.38262040  1
  O  O317  1  0.61799334  0.58471150  0.55321123  1
  C  C318  1  0.72680645  0.52780084  0.65185504  1
  C  C319  1  0.63299274  0.58564280  0.70704912  1
  C  C320  1  0.72963707  0.58957013  0.68509932  1
  H  H321  1  0.79709943  0.64887994  0.69278996  1
  C  C322  1  0.62903211  0.65841882  0.74050171  1
  C  C323  1  0.54262766  0.51285613  0.69874074  1
  C  C324  1  0.55114032  0.63535226  0.53108672  1
  H  H325  1  0.53206463  0.69142412  0.60415946  1
  C  C326  1  0.81900271  0.54161098  0.62372330  1
  Cu  Cu327  1  0.76556242  0.53109998  0.54015795  1
  O  O328  1  0.89471833  0.60693191  0.63116702  1
  H  H329  1  0.73107315  0.95543271  0.55329366  1
  O  O330  1  0.87001484  0.56126307  0.50065300  1
  O  O331  1  0.70935923  0.72984326  0.74901311  1
  O  O332  1  0.71827331  0.64972939  0.88387151  1
  O  O333  1  0.85265629  0.89537955  0.91935696  1
  Cu  Cu334  1  0.81880213  0.59234539  0.91644270  1
  O  O335  1  0.53562672  0.87253815  0.84171278  1
  O  O336  1  0.71276526  0.92102221  0.83029396  1
  C  C337  1  0.56024882  0.71255650  0.93595300  1
  C  C338  1  0.98121249  0.99054573  0.97324347  1
  C  C339  1  0.99172139  0.86982121  0.96283266  1
  O  O340  1  0.54320832  0.66462446  0.76021284  1
  H  H341  1  0.64463844  0.75187563  0.93971855  1
  O  O342  1  0.92143580  0.70847580  0.92288670  1
  Cu  Cu343  1  0.52483194  0.76978949  0.79919487  1
  C  C344  1  0.62192582  0.93411929  0.84813117  1
  Cu  Cu345  1  0.72179285  0.82878580  0.78835794  1
  C  C346  1  0.71769324  0.55560530  0.99380371  1
  C  C347  1  0.91555010  0.82400738  0.93322098  1
  H  H348  1  0.95415837  0.52079404  0.80415774  1
  C  C349  1  0.62300310  0.60062598  0.87947806  1
  O  O350  1  0.79886037  0.55055807  0.97124810  1
  C  C351  1  0.53318280  0.63170681  0.90865736  1
  O  O352  1  0.58053530  0.88500362  0.99007423  1
  O  O353  1  0.60270595  0.52966341  0.85519907  1
