# generated using pymatgen
data_CuH4(C5O2)2
_symmetry_space_group_name_H-M   'P 1'
_cell_length_a   6.74617073
_cell_length_b   25.74778276
_cell_length_c   14.90961399
_cell_angle_alpha   90.00000000
_cell_angle_beta   90.00000000
_cell_angle_gamma   90.00000000
_symmetry_Int_Tables_number   1
_chemical_formula_structural   CuH4(C5O2)2
_chemical_formula_sum   'Cu12 H48 C120 O48'
_cell_volume   2589.78412135
_cell_formula_units_Z   12
loop_
 _symmetry_equiv_pos_site_id
 _symmetry_equiv_pos_as_xyz
  1  'x, y, z'
loop_
 _atom_site_type_symbol
 _atom_site_label
 _atom_site_symmetry_multiplicity
 _atom_site_fract_x
 _atom_site_fract_y
 _atom_site_fract_z
 _atom_site_occupancy
  O  O0  1  0.21327592  0.11830623  0.02047091  1
  Cu  Cu1  1  0.41454399  0.08968231  0.10294805  1
  O  O2  1  0.12646304  0.10851131  0.29255610  1
  C  C3  1  0.15176235  0.02204509  0.32140106  1
  O  O4  1  0.22176214  0.05621063  0.17852189  1
  H  H5  1  0.12904723  0.06946381  0.43940326  1
  C  C6  1  0.16549773  0.06510881  0.25678206  1
  O  O7  1  0.10564594  0.21050419  0.29001780  1
  C  C8  1  0.13635842  0.02886513  0.41359687  1
  O  O9  1  0.21886052  0.20524800  0.00741512  1
  C  C10  1  0.12656273  0.19199797  0.73263755  1
  H  H11  1  0.23419998  0.07228447  0.59095146  1
  C  C12  1  0.14670269  0.10526169  0.84028698  1
  H  H13  1  0.16385852  0.06918274  0.88759417  1
  C  C14  1  0.16735425  0.19934096  0.82350562  1
  C  C15  1  0.10844174  0.09846051  0.75127028  1
  C  C16  1  0.17314762  0.15596246  0.87832323  1
  C  C17  1  0.11287822  0.23596606  0.67119676  1
  C  C18  1  0.10393618  0.14321767  0.69717774  1
  C  C19  1  0.20278710  0.15910636  0.97484282  1
  C  C20  1  0.14674024  0.04030430  0.62273985  1
  H  H21  1  0.17840166  0.23834052  0.84471550  1
  C  C22  1  0.09329406  0.04353010  0.71400856  1
  H  H23  1  0.08930508  0.13836920  0.62332898  1
  O  O24  1  0.10264266  0.22802778  0.58798650  1
  C  C25  1  0.11836188  0.45289981  0.39507168  1
  C  C26  1  0.17927876  0.34049152  0.01854991  1
  H  H27  1  0.16970013  0.25954173  0.13897988  1
  C  C28  1  0.12757410  0.30051365  0.26161613  1
  O  O29  1  0.09643700  0.26332144  0.40616730  1
  C  C30  1  0.10034037  0.25582380  0.32262536  1
  C  C31  1  0.16339108  0.34312086  0.11943364  1
  C  C32  1  0.16338382  0.29767092  0.17176032  1
  H  H33  1  0.06780821  0.35315054  0.37483958  1
  C  C34  1  0.12636473  0.39152967  0.15813304  1
  H  H35  1  0.11859550  0.42821932  0.11724653  1
  C  C36  1  0.09271491  0.39361164  0.25212996  1
  C  C37  1  0.09346556  0.34843344  0.30326791  1
  H  H38  1  0.22012502  0.42725183  0.43021735  1
  C  C39  1  0.05558020  0.44374243  0.30332148  1
  H  H40  1  0.49424502  0.48511974  0.18453139  1
  Cu  Cu41  1  0.44853609  0.25554650  0.00136005  1
  C  C42  1  0.03777761  0.49820996  0.43444824  1
  C  C43  1  0.07354159  0.46516113  0.59194239  1
  O  O44  1  0.10672492  0.27851705  0.71085579  1
  C  C45  1  0.10158665  0.47293782  0.68603740  1
  O  O46  1  0.07847511  0.38321470  0.69573393  1
  O  O47  1  0.11042894  0.42457750  0.82220248  1
  C  C48  1  0.10371922  0.42535254  0.73757512  1
  O  O49  1  0.13940727  0.38252098  0.97868128  1
  O  O50  1  0.23250474  0.30024354  0.98217129  1
  H  H51  1  0.06090898  0.42727496  0.56500962  1
  C  C52  1  0.34522494  0.67465795  0.06912104  1
  C  C53  1  0.39181451  0.60249276  0.17950922  1
  C  C54  1  0.21224878  0.66212705  0.31224350  1
  C  C55  1  0.37142925  0.58392996  0.26780673  1
  C  C56  1  0.32625207  0.65120760  0.16358408  1
  H  H57  1  0.25114635  0.60108451  0.40515011  1
  C  C58  1  0.23620005  0.68366253  0.22701338  1
  C  C59  1  0.27616606  0.61294579  0.33550759  1
  O  O60  1  0.30615452  0.72510662  0.06599190  1
  H  H61  1  0.17086142  0.72208726  0.22003424  1
  C  C62  1  0.11275377  0.69599565  0.38218067  1
  O  O63  1  0.07650388  0.74394696  0.35769171  1
  H  H64  1  0.46020360  0.57477372  0.43583420  1
  C  C65  1  0.46129120  0.53482787  0.30476629  1
  O  O66  1  0.39662637  0.64921474  0.00655251  1
  O  O67  1  0.07218569  0.67695374  0.45340198  1
  H  H68  1  0.47603904  0.57719710  0.12985295  1
  C  C69  1  0.48521483  0.53806225  0.40041668  1
  O  O70  1  0.06264677  0.73950385  0.83180100  1
  O  O71  1  0.16195323  0.62292000  0.77503292  1
  Cu  Cu72  1  0.42156052  0.69608251  0.67753137  1
  C  C73  1  0.14835177  0.56248430  0.66006212  1
  C  C74  1  0.18579246  0.61538214  0.69220634  1
  C  C75  1  0.12598522  0.55797976  0.56663033  1
  H  H76  1  0.15989888  0.52792224  0.79272777  1
  O  O77  1  0.22615674  0.65130344  0.63821527  1
  C  C78  1  0.13733155  0.52206290  0.72094113  1
  H  H79  1  0.13649744  0.59287414  0.52567680  1
  C  C80  1  0.07817655  0.50848557  0.53430495  1
  O  O81  1  0.20270736  0.74751601  0.70182492  1
  H  H82  1  0.19718333  0.96357379  0.22013301  1
  C  C83  1  0.16347330  0.97127157  0.29264786  1
  O  O84  1  0.15184896  0.86992013  0.06910505  1
  C  C85  1  0.08618164  0.87585343  0.32276426  1
  C  C86  1  0.12394829  0.98772043  0.47557995  1
  C  C87  1  0.13450698  0.92818673  0.35053619  1
  C  C88  1  0.12362500  0.93734474  0.44277221  1
  O  O89  1  0.09257937  0.86213488  0.24066454  1
  O  O90  1  0.23117274  0.94999082  0.02689640  1
  Cu  Cu91  1  0.31014762  0.86164398  0.16535463  1
  C  C92  1  0.20569703  0.90632181  0.00363320  1
  H  H93  1  0.10510838  0.90441893  0.49132481  1
  O  O94  1  0.02263764  0.84324031  0.37978861  1
  Cu  Cu95  1  0.48392531  0.77834784  0.10001604  1
  C  C96  1  0.22184331  0.81902966  0.80166585  1
  C  C97  1  0.16245822  0.76635459  0.77573323  1
  C  C98  1  0.34863376  0.90560073  0.76510155  1
  C  C99  1  0.29858001  0.85418872  0.74106231  1
  C  C100  1  0.30124546  0.92163202  0.85240941  1
  H  H101  1  0.32925734  0.84229393  0.67095040  1
  C  C102  1  0.22245212  0.88479729  0.91215068  1
  C  C103  1  0.16917232  0.83392573  0.89061138  1
  H  H104  1  0.09606606  0.80995654  0.94115348  1
  C  C105  1  0.45740086  0.94435466  0.70834815  1
  H  H106  1  0.33502591  0.96034754  0.88311442  1
  H  H107  1  0.49860099  0.90183672  0.58506430  1
  C  C108  1  0.48734834  0.99438861  0.74764577  1
  C  C109  1  0.09356709  0.99489916  0.57623117  1
  H  H110  1  0.46443652  0.99704026  0.81929850  1
  Cu  Cu111  1  0.90583690  0.15628073  0.29328794  1
  O  O112  1  0.70474274  0.20912797  0.28311024  1
  O  O113  1  0.62205293  0.06274750  0.17829289  1
  H  H114  1  0.66729873  0.06308598  0.44309065  1
  C  C115  1  0.66409282  0.01788518  0.31742771  1
  O  O116  1  0.69686172  0.10631648  0.30267929  1
  C  C117  1  0.66346187  0.06497655  0.26139429  1
  O  O118  1  0.62952112  0.11380088  0.02755807  1
  C  C119  1  0.66199012  0.02516676  0.41146400  1
  O  O120  1  0.65119967  0.19767744  0.00370963  1
  Cu  Cu121  1  0.89425048  0.24250056  0.49762316  1
  C  C122  1  0.64434582  0.14441351  0.87701196  1
  C  C123  1  0.57963548  0.03595338  0.70290229  1
  O  O124  1  0.69454740  0.22996271  0.59495283  1
  C  C125  1  0.63063135  0.13517838  0.69350320  1
  C  C126  1  0.63076452  0.02905895  0.61144013  1
  C  C127  1  0.67813872  0.23211981  0.67825133  1
  C  C128  1  0.63707785  0.18530264  0.72872014  1
  C  C129  1  0.64228335  0.18874926  0.82449588  1
  H  H130  1  0.63386098  0.22771541  0.85502350  1
  C  C131  1  0.63690109  0.15226673  0.97519018  1
  C  C132  1  0.61682596  0.09049231  0.74649662  1
  H  H133  1  0.62705416  0.12980696  0.61896197  1
  C  C134  1  0.63739169  0.09332821  0.83994515  1
  H  H135  1  0.69850515  0.06156857  0.57768996  1
  H  H136  1  0.62666564  0.05843989  0.88263008  1
  C  C137  1  0.98987339  0.00589904  0.76439777  1
  H  H138  1  0.93694441  0.00765690  0.83430930  1
  C  C139  1  0.64809494  0.29799282  0.27148048  1
  H  H140  1  0.59063200  0.34177062  0.38995996  1
  C  C141  1  0.57381291  0.44618166  0.31286783  1
  C  C142  1  0.61073636  0.39258087  0.27208997  1
  C  C143  1  0.63704198  0.39026607  0.17865734  1
  C  C144  1  0.66267129  0.34410155  0.13314041  1
  H  H145  1  0.67421012  0.25881686  0.14434173  1
  C  C146  1  0.66620095  0.29702701  0.17893799  1
  C  C147  1  0.68675961  0.34402408  0.03537265  1
  H  H148  1  0.62755353  0.41383752  0.44552855  1
  H  H149  1  0.61144750  0.42600861  0.14033759  1
  C  C150  1  0.58740195  0.44834195  0.40771239  1
  C  C151  1  0.60734089  0.34395084  0.31614420  1
  C  C152  1  0.54316251  0.49618156  0.45297334  1
  H  H153  1  0.95175038  0.47666663  0.17550414  1
  C  C154  1  0.51264162  0.48773319  0.25672144  1
  C  C155  1  0.98596907  0.48416820  0.24757690  1
  C  C156  1  0.68599029  0.25108469  0.32537863  1
  O  O157  1  0.68460829  0.25324941  0.41063157  1
  C  C158  1  0.66283202  0.42223221  0.75769372  1
  Cu  Cu159  1  0.88124988  0.32952364  0.71464420  1
  C  C160  1  0.61347019  0.46084832  0.60642124  1
  O  O161  1  0.66894886  0.37843121  0.72017188  1
  O  O162  1  0.70729106  0.27495137  0.72253028  1
  C  C163  1  0.64005374  0.46835373  0.69639581  1
  O  O164  1  0.70374836  0.43029368  0.83679949  1
  Cu  Cu165  1  0.92926485  0.40206227  0.90469964  1
  H  H166  1  0.59115190  0.42045182  0.58058369  1
  O  O167  1  0.65374054  0.30199148  0.99239464  1
  O  O168  1  0.73592322  0.38477501  0.99553560  1
  H  H169  1  0.76789484  0.63085342  0.33033545  1
  C  C170  1  0.79563916  0.62372710  0.25999631  1
  O  O171  1  0.69564983  0.72630282  0.31309427  1
  H  H172  1  0.78518450  0.69498356  0.06470808  1
  C  C173  1  0.80984638  0.66192302  0.10770135  1
  C  C174  1  0.76888060  0.66507541  0.20019540  1
  C  C175  1  0.70668717  0.71633727  0.23313728  1
  C  C176  1  0.88879243  0.57716255  0.22656375  1
  C  C177  1  0.95456677  0.53532161  0.28712469  1
  C  C178  1  0.87323170  0.61252598  0.08067264  1
  C  C179  1  0.91625731  0.56869832  0.13452138  1
  H  H180  1  0.89668260  0.57325464  0.41625204  1
  C  C181  1  0.95260440  0.53875884  0.38372671  1
  H  H182  1  0.98536806  0.53373975  0.10909342  1
  C  C183  1  0.63845740  0.55682303  0.67672698  1
  O  O184  1  0.59832588  0.74399984  0.71252653  1
  O  O185  1  0.61888226  0.64916238  0.65819903  1
  C  C186  1  0.64919240  0.61095660  0.71026951  1
  H  H187  1  0.59232695  0.58808966  0.54474992  1
  H  H188  1  0.67635553  0.52455976  0.80938539  1
  C  C189  1  0.60126640  0.55481667  0.58422557  1
  O  O190  1  0.71224698  0.61667499  0.78780184  1
  C  C191  1  0.65030908  0.51647956  0.73898356  1
  O  O192  1  0.91405671  0.64870458  0.93526288  1
  Cu  Cu193  1  0.94653222  0.66964961  0.82013321  1
  C  C194  1  0.91865488  0.60463702  0.98230779  1
  O  O195  1  0.98143296  0.56436713  0.95606201  1
  C  C196  1  0.58008297  0.50444285  0.55218101  1
  O  O197  1  0.55166135  0.87393101  0.21195004  1
  H  H198  1  0.63697037  0.89915201  0.47019577  1
  Cu  Cu199  1  0.85345745  0.78818853  0.34793730  1
  C  C200  1  0.62873944  0.92698628  0.33467912  1
  C  C201  1  0.61860767  0.98346785  0.46477027  1
  C  C202  1  0.63198779  0.96964940  0.27667802  1
  C  C203  1  0.63310609  0.93234621  0.42806656  1
  O  O204  1  0.61284932  0.83523848  0.34063848  1
  C  C205  1  0.60180981  0.87485365  0.29493131  1
  O  O206  1  0.75971698  0.88735110  0.04509180  1
  Cu  Cu207  1  0.92386698  0.87201205  0.14499021  1
  H  H208  1  0.63382377  0.96592041  0.20299136  1
  O  O209  1  0.68801197  0.75207484  0.17112440  1
  O  O210  1  0.67261528  0.80550214  0.01257262  1
  C  C211  1  0.88019925  0.91257211  0.76653045  1
  C  C212  1  0.83676755  0.90458697  0.85842593  1
  C  C213  1  0.72657673  0.82717541  0.74477850  1
  C  C214  1  0.75388063  0.85859307  0.89566824  1
  O  O215  1  0.66264857  0.79571647  0.59853658  1
  C  C216  1  0.67227386  0.78652111  0.67691588  1
  C  C217  1  0.59881740  0.98032700  0.56568571  1
  H  H218  1  0.84307569  0.87351280  0.63658133  1
  C  C219  1  0.72722204  0.85198313  0.99114239  1
  H  H220  1  0.87616858  0.93211552  0.91269369  1
  C  C221  1  0.80884539  0.87146244  0.71027284  1
  C  C222  1  0.70293178  0.81907228  0.83663526  1
  H  H223  1  0.64632198  0.78218372  0.86437322  1
  C  C224  1  0.95203689  0.95942578  0.71764811  1
  H  H225  1  0.95476929  0.91901131  0.58905830  1
  C  C226  1  0.99937469  0.95589871  0.62471186  1
  C  C227  1  0.52476670  0.93863444  0.61782786  1
