# generated using pymatgen
data_CuH2(C3O2)2
_symmetry_space_group_name_H-M   'P 1'
_cell_length_a   27.61813121
_cell_length_b   23.12725617
_cell_length_c   19.59474679
_cell_angle_alpha   90.00000000
_cell_angle_beta   90.00000000
_cell_angle_gamma   90.00000000
_symmetry_Int_Tables_number   1
_chemical_formula_structural   CuH2(C3O2)2
_chemical_formula_sum   'Cu48 H96 C288 O192'
_cell_volume   12515.78388082
_cell_formula_units_Z   48
loop_
 _symmetry_equiv_pos_site_id
 _symmetry_equiv_pos_as_xyz
  1  'x, y, z'
loop_
 _atom_site_type_symbol
 _atom_site_label
 _atom_site_symmetry_multiplicity
 _atom_site_fract_x
 _atom_site_fract_y
 _atom_site_fract_z
 _atom_site_occupancy
  O  O0  1  0.18465918  0.11141759  0.18454458  1
  C  C1  1  0.03327657  0.15802812  0.09383484  1
  Cu  Cu2  1  0.11886759  0.10308829  0.20182332  1
  C  C3  1  0.04184407  0.09647551  0.11613639  1
  O  O4  1  0.08432201  0.07719436  0.12177653  1
  O  O5  1  0.17743810  0.18868962  0.11432847  1
  C  C6  1  0.20067566  0.15513156  0.15608166  1
  C  C7  1  0.02999626  0.27367785  0.05082531  1
  H  H8  1  0.02470399  0.32056394  0.03524615  1
  C  C9  1  0.07457144  0.18564847  0.06712048  1
  C  C10  1  0.07280411  0.24293636  0.04495445  1
  Cu  Cu11  1  0.19809665  0.20656282  0.02404028  1
  H  H12  1  0.10734050  0.16021315  0.05632912  1
  O  O13  1  0.15414477  0.26955203  0.03161444  1
  H  H14  1  0.08743960  0.43575094  0.19285736  1
  O  O15  1  0.23264705  0.13687395  0.02314171  1
  C  C16  1  0.11247875  0.27264992  0.00903793  1
  C  C17  1  0.08336869  0.47800465  0.21579453  1
  O  O18  1  0.12100571  0.02145634  0.24144440  1
  O  O19  1  0.00569071  0.06952259  0.13630782  1
  Cu  Cu20  1  0.24263902  0.48976718  0.18589106  1
  H  H21  1  0.23807953  0.25423479  0.12676158  1
  O  O22  1  0.00297956  0.42889231  0.15005227  1
  C  C23  1  0.24833153  0.17341621  0.18037315  1
  O  O24  1  0.27991885  0.48168573  0.11002703  1
  C  C25  1  0.42627754  0.01453538  0.03657022  1
  O  O26  1  0.49252425  0.32425539  0.24635629  1
  H  H27  1  0.37369400  0.23226571  0.22903208  1
  O  O28  1  0.48936574  0.18641115  0.06904677  1
  O  O29  1  0.45056070  0.40375371  0.22194447  1
  Cu  Cu30  1  0.38280386  0.38441865  0.21609662  1
  O  O31  1  0.30238955  0.32743406  0.09939745  1
  C  C32  1  0.31003283  0.24792635  0.16892748  1
  C  C33  1  0.33950558  0.21493370  0.21265477  1
  H  H34  1  0.32616847  0.41139853  0.03793547  1
  C  C35  1  0.47388871  0.03286282  0.03931209  1
  O  O36  1  0.28163947  0.43103580  0.23431457  1
  O  O37  1  0.40329595  0.10348865  0.08405768  1
  Cu  Cu38  1  0.30423077  0.29468668  0.01488439  1
  C  C39  1  0.27683815  0.13795116  0.22027764  1
  H  H40  1  0.47994735  0.07546108  0.06389335  1
  C  C41  1  0.26392191  0.22652123  0.15408005  1
  C  C42  1  0.32944908  0.30156904  0.14184472  1
  O  O43  1  0.37087662  0.32261640  0.15791648  1
  Cu  Cu44  1  0.43361269  0.15995762  0.02945134  1
  O  O45  1  0.34548924  0.03939933  0.06129498  1
  C  C46  1  0.38809612  0.05319641  0.06261295  1
  C  C47  1  0.32216119  0.16229535  0.23613721  1
  H  H48  1  0.26290656  0.09632486  0.23644955  1
  O  O49  1  0.07923852  0.09115574  0.35089271  1
  C  C50  1  0.03576037  0.23514081  0.31077736  1
  C  C51  1  0.07760795  0.13836234  0.32200050  1
  C  C52  1  0.03938244  0.18118328  0.34097326  1
  Cu  Cu53  1  0.12983321  0.40818370  0.37088199  1
  Cu  Cu54  1  0.12852739  0.05264402  0.40480156  1
  O  O55  1  0.17615487  0.36379181  0.41437203  1
  O  O56  1  0.08489650  0.40554049  0.44712135  1
  C  C57  1  0.05425729  0.44528777  0.45387303  1
  C  C58  1  0.20493424  0.38265032  0.46246340  1
  O  O59  1  0.16626856  0.02193990  0.33342440  1
  H  H60  1  0.23459538  0.40778760  0.33300975  1
  O  O61  1  0.01254305  0.44395516  0.42757124  1
  O  O62  1  0.09831056  0.07861200  0.48341391  1
  H  H63  1  0.00560713  0.11716722  0.41134853  1
  C  C64  1  0.00634164  0.16293579  0.39048412  1
  O  O65  1  0.16516820  0.42235931  0.29344973  1
  C  C66  1  0.16406666  0.47010461  0.26285293  1
  O  O67  1  0.20138313  0.49935014  0.25240299  1
  C  C68  1  0.06590531  0.49935581  0.48948493  1
  C  C69  1  0.15979453  0.00729563  0.27154566  1
  O  O70  1  0.10411258  0.14914340  0.27128623  1
  H  H71  1  0.06129375  0.24992084  0.27046116  1
  O  O72  1  0.02186340  0.35200556  0.26072320  1
  C  C73  1  0.24747703  0.41766336  0.44133538  1
  C  C74  1  0.27915178  0.43985416  0.48889565  1
  O  O75  1  0.45521827  0.20897988  0.45153088  1
  C  C76  1  0.44893982  0.25231877  0.48316888  1
  O  O77  1  0.35717374  0.44638617  0.25702311  1
  C  C78  1  0.49081435  0.46806388  0.41425665  1
  H  H79  1  0.36617092  0.49592017  0.38739359  1
  C  C80  1  0.30185702  0.44949839  0.35043847  1
  O  O81  1  0.39503135  0.14708491  0.29943683  1
  C  C82  1  0.31394791  0.44492626  0.27805944  1
  C  C83  1  0.33224318  0.47264946  0.39961656  1
  Cu  Cu84  1  0.38105817  0.02633617  0.33026837  1
  C  C85  1  0.47706851  0.37373778  0.26187281  1
  O  O86  1  0.33787545  0.08172175  0.31197040  1
  C  C87  1  0.35602898  0.12934161  0.28259024  1
  C  C88  1  0.25838586  0.42698157  0.37066469  1
  C  C89  1  0.49064061  0.39506616  0.32917659  1
  C  C90  1  0.47266099  0.44747426  0.35242012  1
  H  H91  1  0.44902845  0.47637065  0.32243528  1
  C  C92  1  0.32235795  0.46652233  0.46909457  1
  O  O93  1  0.13433291  0.29954034  0.65869291  1
  H  H94  1  0.23263671  0.34557405  0.65659005  1
  H  H95  1  0.15581300  0.02813830  0.56411691  1
  C  C96  1  0.14460695  0.28822525  0.71523427  1
  C  C97  1  0.23710811  0.32394009  0.70492076  1
  C  C98  1  0.07699647  0.01164296  0.56624527  1
  C  C99  1  0.12472489  0.00626135  0.58888871  1
  C  C100  1  0.06422702  0.05479079  0.51697801  1
  C  C101  1  0.19909938  0.29299158  0.73478438  1
  H  H102  1  0.13715999  0.46637935  0.51883600  1
  O  O103  1  0.19676412  0.37126583  0.52125147  1
  O  O104  1  0.01989993  0.06714134  0.50754703  1
  O  O105  1  0.44147413  0.29522148  0.50999431  1
  C  C106  1  0.35514645  0.49113227  0.52133896  1
  O  O107  1  0.47153928  0.07960593  0.65290710  1
  Cu  Cu108  1  0.31510776  0.47704895  0.66114103  1
  H  H109  1  0.26708477  0.43407989  0.54537737  1
  C  C110  1  0.28202024  0.32660921  0.73776104  1
  O  O111  1  0.36047324  0.36101063  0.71069308  1
  C  C112  1  0.31771892  0.36382608  0.69828129  1
  C  C113  1  0.48811198  0.12631307  0.66311467  1
  O  O114  1  0.30118604  0.39876230  0.65287847  1
  O  O115  1  0.48037604  0.15520777  0.71922379  1
  O  O116  1  0.35420773  0.47084266  0.57970680  1
  O  O117  1  0.27800044  0.47437529  0.74529258  1
  O  O118  1  0.06762188  0.37635441  0.80750052  1
  H  H119  1  0.17585854  0.25299936  0.82652193  1
  C  C120  1  0.20667905  0.27023347  0.79823107  1
  C  C121  1  0.05129959  0.39665391  0.86342078  1
  O  O122  1  0.02734168  0.36460707  0.90297128  1
  O  O123  1  0.22112344  0.22888475  0.92959454  1
  Cu  Cu124  1  0.03794597  0.28782168  0.91426591  1
  Cu  Cu125  1  0.05095878  0.30035685  0.77326448  1
  C  C126  1  0.05587823  0.45741505  0.88123361  1
  C  C127  1  0.22783367  0.09675994  0.97780829  1
  O  O128  1  0.10140253  0.30117142  0.95869410  1
  O  O129  1  0.19037203  0.06873964  0.97258890  1
  H  H130  1  0.11312308  0.46960197  0.80356446  1
  C  C131  1  0.02743493  0.48309983  0.92946733  1
  C  C132  1  0.08890155  0.48913374  0.84214354  1
  H  H133  1  0.23278562  0.00063118  0.90321702  1
  O  O134  1  0.11187603  0.27282828  0.76003398  1
  C  C135  1  0.25199787  0.27726772  0.83255177  1
  C  C136  1  0.31057649  0.00078712  0.88012615  1
  C  C137  1  0.25758473  0.25257265  0.90019900  1
  O  O138  1  0.43439211  0.09145335  0.87736742  1
  O  O139  1  0.36705974  0.32396019  0.98694141  1
  H  H140  1  0.32939909  0.29834686  0.82320170  1
  O  O141  1  0.29850596  0.25674788  0.92972815  1
  C  C142  1  0.31676618  0.42930425  0.98784698  1
  C  C143  1  0.27089799  0.07763643  0.93796172  1
  C  C144  1  0.35455302  0.08038852  0.91362334  1
  C  C145  1  0.33705603  0.41100809  0.92645112  1
  C  C146  1  0.40151221  0.11239597  0.91311157  1
  H  H147  1  0.31928335  0.15461484  0.95779782  1
  O  O148  1  0.40669955  0.15874119  0.94576080  1
  C  C149  1  0.35585250  0.02685666  0.88163592  1
  Cu  Cu150  1  0.46180751  0.12137231  0.79525591  1
  C  C151  1  0.36713555  0.35831197  0.93449931  1
  H  H152  1  0.33610875  0.41213022  0.81686263  1
  O  O153  1  0.39202391  0.34658411  0.88523394  1
  C  C154  1  0.31476373  0.10894982  0.93898593  1
  C  C155  1  0.26718163  0.02658683  0.90336861  1
  C  C156  1  0.29292379  0.29915823  0.79892953  1
  C  C157  1  0.32332657  0.43398202  0.86289053  1
  C  C158  1  0.29011804  0.48173338  0.98374391  1
  C  C159  1  0.29423348  0.48277060  0.86120754  1
  H  H160  1  0.38976982  0.00558758  0.86097255  1
  C  C161  1  0.18926259  0.95193897  0.17005701  1
  H  H162  1  0.15302596  0.95102609  0.14530305  1
  O  O163  1  0.18434512  0.91603901  0.02897110  1
  O  O164  1  0.24034151  0.54306702  0.04499905  1
  C  C165  1  0.22339459  0.91134955  0.06148955  1
  C  C166  1  0.22891626  0.93040457  0.13279765  1
  C  C167  1  0.19656177  0.97282091  0.23651035  1
  O  O168  1  0.00002402  0.62431852  0.00180057  1
  C  C169  1  0.03810941  0.50842673  0.20906970  1
  C  C170  1  0.03431884  0.56413069  0.23527389  1
  H  H171  1  0.00287898  0.59207391  0.22860831  1
  C  C172  1  0.26846520  0.50456185  0.05047224  1
  C  C173  1  0.27437315  0.92744210  0.16265322  1
  O  O174  1  0.36409660  0.92268745  0.22309738  1
  H  H175  1  0.37800771  0.94612233  0.00556635  1
  H  H176  1  0.30766300  0.91759931  0.13243046  1
  O  O177  1  0.26099348  0.88865125  0.03505383  1
  C  C178  1  0.41607709  0.96046811  0.00743235  1
  C  C179  1  0.27842218  0.94642207  0.23024836  1
  C  C180  1  0.06138712  0.64453143  0.31273125  1
  O  O181  1  0.09441649  0.66641923  0.34316712  1
  H  H182  1  0.14388433  0.58022272  0.31157544  1
  C  C183  1  0.14911308  0.86766560  0.40338457  1
  C  C184  1  0.15110969  0.87833558  0.32701965  1
  C  C185  1  0.11489327  0.55702515  0.28070414  1
  H  H186  1  0.08390108  0.81336147  0.40659912  1
  O  O187  1  0.11968313  0.87144875  0.28509840  1
  C  C188  1  0.11272200  0.83446925  0.43474569  1
  H  H189  1  0.17906066  0.90510300  0.29809642  1
  C  C190  1  0.07076201  0.58816426  0.27521458  1
  C  C191  1  0.21332186  0.93857792  0.44961884  1
  C  C192  1  0.17781034  0.89445979  0.45960268  1
  O  O193  1  0.01741144  0.66134748  0.32184943  1
  O  O194  1  0.24134075  0.97510957  0.43541999  1
  C  C195  1  0.11907924  0.50242940  0.25298990  1
  C  C196  1  0.24160046  0.96793719  0.26903182  1
  H  H197  1  0.24663290  0.98101702  0.32435825  1
  C  C198  1  0.03230555  0.54393922  0.49606987  1
  H  H199  1  0.47576512  0.86988618  0.49670946  1
  C  C200  1  0.48846936  0.86206752  0.44392751  1
  C  C201  1  0.33039711  0.94118966  0.25497665  1
  C  C202  1  0.47612068  0.87769044  0.32080438  1
  O  O203  1  0.33502527  0.96739882  0.31351865  1
  O  O204  1  0.43395340  0.97691988  0.34703019  1
  C  C205  1  0.47758431  0.52919353  0.43153558  1
  C  C206  1  0.44480865  0.94797062  0.40068251  1
  H  H207  1  0.46353705  0.90986239  0.28277942  1
  O  O208  1  0.44447330  0.96325526  0.45893715  1
  O  O209  1  0.48156414  0.54413927  0.49707305  1
  O  O210  1  0.45829502  0.55939461  0.39099255  1
  C  C211  1  0.46998283  0.89162375  0.38906605  1
  C  C212  1  0.09700881  0.93582738  0.67085352  1
  H  H213  1  0.09720694  0.63955356  0.59313963  1
  C  C214  1  0.08980282  0.60021908  0.56544934  1
  C  C215  1  0.04840622  0.94016245  0.64740930  1
  C  C216  1  0.13404905  0.96774493  0.64166615  1
  H  H217  1  0.10917653  0.90678908  0.71229634  1
  C  C218  1  0.18446515  0.95805970  0.67129910  1
  Cu  Cu219  1  0.04693953  0.78864660  0.68901882  1
  O  O220  1  0.17512204  0.59057216  0.63984449  1
  C  C221  1  0.12169163  0.55400596  0.55910625  1
  C  C222  1  0.17100323  0.55071659  0.59380339  1
  O  O223  1  0.09058974  0.82399432  0.62031473  1
  Cu  Cu224  1  0.21101330  0.57361541  0.72129466  1
  H  H225  1  0.17229994  0.88101200  0.57238554  1
  C  C226  1  0.08615213  0.81391436  0.55888066  1
  C  C227  1  0.15947751  0.86874662  0.52168261  1
  O  O228  1  0.04752442  0.79299181  0.53366150  1
  O  O229  1  0.19133242  0.91316896  0.71406955  1
  C  C230  1  0.11767084  0.83702524  0.50638268  1
  C  C231  1  0.04445806  0.59246258  0.53382678  1
  O  O232  1  0.20016240  0.51532255  0.57689779  1
  C  C233  1  0.03945435  0.97767874  0.59308925  1
  O  O234  1  0.02293900  0.68766242  0.56977037  1
  O  O235  1  0.01893429  0.86507844  0.71221009  1
  C  C236  1  0.11191214  0.50471445  0.52057944  1
  O  O237  1  0.21566784  0.98972623  0.65411895  1
  C  C238  1  0.00798971  0.90267034  0.67051921  1
  H  H239  1  0.00313872  0.98154353  0.57197762  1
  C  C240  1  0.01204285  0.64365057  0.53593027  1
  O  O241  1  0.48202732  0.51999372  0.71955419  1
  C  C242  1  0.31299715  0.59561711  0.70329123  1
  C  C243  1  0.49841660  0.54652518  0.67365896  1
  O  O244  1  0.33678618  0.55499151  0.67751232  1
  Cu  Cu245  1  0.43212047  0.55341178  0.56093519  1
  O  O246  1  0.26989795  0.60226422  0.68241780  1
  O  O247  1  0.47205881  0.57989676  0.63216020  1
  O  O248  1  0.38517808  0.52871172  0.50056455  1
  C  C249  1  0.09399895  0.54790162  0.85651755  1
  C  C250  1  0.08674741  0.91155727  0.88437118  1
  C  C251  1  0.13851267  0.93030094  0.88035905  1
  C  C252  1  0.07464097  0.85799883  0.85466403  1
  O  O253  1  0.16486787  0.89815542  0.84561446  1
  H  H254  1  0.10449503  0.83084294  0.83299831  1
  C  C255  1  0.02619341  0.84072269  0.85886039  1
  C  C256  1  0.05465773  0.94515459  0.92046235  1
  C  C257  1  0.06715226  0.57718789  0.90411292  1
  H  H258  1  0.07249619  0.62389753  0.90967905  1
  C  C259  1  0.03369414  0.54284569  0.93946481  1
  Cu  Cu260  1  0.22320408  0.91540087  0.79174554  1
  O  O261  1  0.03986613  0.76104679  0.78022685  1
  O  O262  1  0.15178990  0.97553842  0.90836234  1
  C  C263  1  0.12811041  0.58043397  0.80996918  1
  C  C264  1  0.00657466  0.92525946  0.92510103  1
  H  H265  1  0.06807494  0.98723086  0.93962310  1
  O  O266  1  0.13260287  0.63140111  0.82039640  1
  O  O267  1  0.24756547  0.54924036  0.79994986  1
  C  C268  1  0.01014810  0.78463562  0.82158161  1
  C  C269  1  0.00335053  0.57356495  0.98875392  1
  Cu  Cu270  1  0.18090627  0.99261032  0.99667425  1
  O  O271  1  0.15223640  0.55009811  0.76746824  1
  O  O272  1  0.25088176  0.76600325  0.84932065  1
  H  H273  1  0.25868741  0.54896708  0.92240057  1
  Cu  Cu274  1  0.49217015  0.76039776  0.91518638  1
  H  H275  1  0.40256180  0.59109293  0.76082333  1
  C  C276  1  0.33450665  0.63608415  0.75338243  1
  C  C277  1  0.45311867  0.92501245  0.98466324  1
  H  H278  1  0.26858655  0.68846473  0.76090706  1
  O  O279  1  0.34360258  0.91020825  0.83973142  1
  C  C280  1  0.44603171  0.86320590  0.96702759  1
  Cu  Cu281  1  0.27929613  0.83682411  0.97358050  1
  C  C282  1  0.30705955  0.94111174  0.85724454  1
  C  C283  1  0.38030158  0.62720864  0.77946202  1
  O  O284  1  0.26556359  0.91809459  0.86107995  1
  C  C285  1  0.32209309  0.71415212  0.83277210  1
  C  C286  1  0.44485087  0.66417037  0.85535352  1
  O  O287  1  0.45876738  0.69375259  0.90517404  1
  O  O288  1  0.40370807  0.84315846  0.96857581  1
  C  C289  1  0.27736325  0.50575023  0.79643075  1
  C  C290  1  0.36728135  0.70791502  0.86354594  1
  C  C291  1  0.30599464  0.68085489  0.77836842  1
  Cu  Cu292  1  0.35650899  0.84501039  0.90316128  1
  O  O293  1  0.48143321  0.83392655  0.94792679  1
  C  C294  1  0.27871804  0.50766034  0.92286456  1
  H  H295  1  0.38003938  0.73507632  0.90427549  1
  O  O296  1  0.47535455  0.63489804  0.81875831  1
  C  C297  1  0.29198733  0.75981711  0.86735249  1
  C  C298  1  0.39510348  0.66453639  0.83147083  1
  O  O299  1  0.30959032  0.78916143  0.91841735  1
  H  H300  1  0.64833223  0.27030387  0.14048074  1
  C  C301  1  0.71992231  0.26550376  0.18548951  1
  C  C302  1  0.66982400  0.26136983  0.18612739  1
  Cu  Cu303  1  0.60132694  0.07923867  0.11728166  1
  O  O304  1  0.57095285  0.25526543  0.19281445  1
  O  O305  1  0.55033513  0.08227383  0.17302570  1
  O  O306  1  0.65908813  0.06951510  0.07721907  1
  O  O307  1  0.72251334  0.31449232  0.07969497  1
  C  C308  1  0.52131099  0.22140690  0.04752487  1
  O  O309  1  0.52758838  0.27167349  0.07340905  1
  C  C310  1  0.69433246  0.04090630  0.09753162  1
  O  O311  1  0.56522847  0.07318286  0.03490601  1
  O  O312  1  0.68469011  0.46076347  0.18914561  1
  Cu  Cu313  1  0.51495170  0.29597137  0.16274732  1
  C  C314  1  0.72374068  0.44132069  0.20092010  1
  C  C315  1  0.55108984  0.06092822  0.23277806  1
  O  O316  1  0.73038782  0.47544309  0.02247480  1
  H  H317  1  0.71188347  0.14184839  0.03584213  1
  H  H318  1  0.59744836  0.28167430  0.01194469  1
  C  C319  1  0.56158149  0.02123304  0.01269341  1
  C  C320  1  0.74399830  0.06697057  0.08879863  1
  C  C321  1  0.74581152  0.12045646  0.05510819  1
  C  C322  1  0.59203433  0.24366120  0.24709793  1
  C  C323  1  0.74520210  0.29172210  0.12862309  1
  C  C324  1  0.56769212  0.00336169  0.24808868  1
  C  C325  1  0.74754919  0.24761871  0.24278851  1
  C  C326  1  0.64561879  0.24410430  0.24615180  1
  C  C327  1  0.79027739  0.20085421  0.00273073  1
  C  C328  1  0.99913125  0.47947810  0.17295515  1
  O  O329  1  0.75748019  0.44261894  0.15398874  1
  O  O330  1  0.95396914  0.33160906  0.09477314  1
  O  O331  1  0.91190573  0.06502334  0.13298540  1
  O  O332  1  0.99044900  0.00341130  0.00842124  1
  H  H333  1  0.78032111  0.00069290  0.14468115  1
  Cu  Cu334  1  0.76184111  0.41101872  0.06254974  1
  C  C335  1  0.82778082  0.07077819  0.10535399  1
  Cu  Cu336  1  0.95958880  0.03735210  0.07436808  1
  H  H337  1  0.79830814  0.36702412  0.22462841  1
  H  H338  1  0.86849430  0.14457067  0.06752784  1
  C  C339  1  0.78985462  0.14808686  0.04508593  1
  O  O340  1  0.90638956  0.25619426  0.11169198  1
  H  H341  1  0.95665078  0.16089544  0.11209476  1
  C  C342  1  0.99003549  0.24476541  0.07922942  1
  Cu  Cu343  1  0.98705832  0.34947000  0.17978292  1
  C  C344  1  0.83267767  0.12125517  0.06894548  1
  C  C345  1  0.86961292  0.04110602  0.14112631  1
  Cu  Cu346  1  0.84515326  0.28022511  0.06860304  1
  O  O347  1  0.85168724  0.34812945  0.02119255  1
  C  C348  1  0.98945252  0.18499401  0.09508884  1
  C  C349  1  0.94633452  0.27737412  0.09252314  1
  O  O350  1  0.79125942  0.29332974  0.12993885  1
  C  C351  1  0.78402613  0.03969753  0.11478587  1
  H  H352  1  0.78677139  0.25238402  0.24506373  1
  C  C353  1  0.59027645  0.11984321  0.45573440  1
  O  O354  1  0.57361477  0.06968311  0.45513079  1
  O  O355  1  0.60821942  0.14379208  0.40523638  1
  Cu  Cu356  1  0.56951839  0.15279415  0.32620142  1
  C  C357  1  0.69053800  0.42218937  0.44752777  1
  H  H358  1  0.65170312  0.20468434  0.34806561  1
  C  C359  1  0.71820099  0.40625939  0.38596448  1
  C  C360  1  0.70266650  0.42471216  0.32084956  1
  H  H361  1  0.66924101  0.44928497  0.31404871  1
  C  C362  1  0.66920139  0.22198269  0.30191418  1
  C  C363  1  0.71946623  0.22660466  0.29468399  1
  O  O364  1  0.66215579  0.46459396  0.43637043  1
  H  H365  1  0.53500453  0.31732025  0.35276350  1
  C  C366  1  0.53216611  0.38251013  0.43665467  1
  O  O367  1  0.72849779  0.20119945  0.40997686  1
  O  O368  1  0.56930894  0.22871371  0.30045792  1
  C  C369  1  0.51839094  0.43730530  0.45965007  1
  C  C370  1  0.52091207  0.36187203  0.37039596  1
  O  O371  1  0.53632496  0.09066937  0.28341593  1
  O  O372  1  0.58226864  0.30409890  0.46239532  1
  C  C373  1  0.73394360  0.41137810  0.26707299  1
  C  C374  1  0.56760440  0.35022330  0.47841389  1
  H  H375  1  0.55942165  0.01544546  0.35641710  1
  C  C376  1  0.74742217  0.20578087  0.35729854  1
  Cu  Cu377  1  0.61608521  0.01666852  0.49789614  1
  C  C378  1  0.99893176  0.27288458  0.33495000  1
  C  C379  1  0.99588019  0.33172659  0.30737482  1
  O  O380  1  0.96672560  0.36497595  0.33864759  1
  O  O381  1  0.89286443  0.21118377  0.46904490  1
  O  O382  1  0.79368862  0.19367382  0.34497982  1
  C  C383  1  0.78465692  0.35282388  0.33461526  1
  C  C384  1  0.96885123  0.19937631  0.41125555  1
  Cu  Cu385  1  0.97119166  0.37704986  0.43169338  1
  C  C386  1  0.75842354  0.36874905  0.39106290  1
  H  H387  1  0.77063701  0.35456448  0.44104959  1
  O  O388  1  0.85619673  0.31178377  0.29259745  1
  O  O389  1  0.93892040  0.13839527  0.49570726  1
  C  C390  1  0.93262192  0.18342745  0.46389188  1
  C  C391  1  0.77463504  0.37656778  0.27028408  1
  C  C392  1  0.96536499  0.25411377  0.38340499  1
  Cu  Cu393  1  0.84496484  0.20629017  0.40228849  1
  O  O394  1  0.83774029  0.28892668  0.39701473  1
  C  C395  1  0.82867768  0.31364688  0.33979444  1
  H  H396  1  0.93449231  0.28121264  0.39869263  1
  C  C397  1  0.59295967  0.22152052  0.60231457  1
  C  C398  1  0.61900115  0.26928314  0.63328899  1
  C  C399  1  0.55805131  0.19625087  0.64431376  1
  O  O400  1  0.60547613  0.28830592  0.68932277  1
  H  H401  1  0.55327184  0.21673290  0.69490579  1
  C  C402  1  0.54138224  0.12470837  0.56018799  1
  O  O403  1  0.65510321  0.29323893  0.60218459  1
  C  C404  1  0.64723257  0.42869716  0.68414483  1
  O  O405  1  0.69030322  0.42150175  0.66505084  1
  Cu  Cu406  1  0.64702337  0.36225868  0.55923136  1
  C  C407  1  0.60417688  0.19932492  0.53768330  1
  C  C408  1  0.52899510  0.15045808  0.62133755  1
  C  C409  1  0.61942935  0.47676610  0.65427015  1
  O  O410  1  0.58441826  0.37639766  0.53210749  1
  C  C411  1  0.57298868  0.48811592  0.68145708  1
  C  C412  1  0.57825927  0.15007158  0.52114547  1
  H  H413  1  0.55407381  0.46108444  0.72085915  1
  H  H414  1  0.52223083  0.08451794  0.54614849  1
  O  O415  1  0.69440978  0.39520529  0.50308500  1
  H  H416  1  0.67955279  0.49095910  0.58237769  1
  O  O417  1  0.61276422  0.00795263  0.64262725  1
  O  O418  1  0.62990144  0.40023115  0.73226996  1
  Cu  Cu419  1  0.74836350  0.43345458  0.70177823  1
  H  H420  1  0.53116148  0.45399337  0.50916178  1
  H  H421  1  0.63230191  0.21544556  0.50325461  1
  O  O422  1  0.96486512  0.37044964  0.52774424  1
  H  H423  1  0.96420948  0.27141238  0.59030783  1
  H  H424  1  0.92518623  0.37239006  0.74097249  1
  Cu  Cu425  1  0.99246518  0.12809132  0.55875729  1
  O  O426  1  0.89812327  0.42341397  0.54625090  1
  C  C427  1  0.78244183  0.31359448  0.68395999  1
  C  C428  1  0.90300454  0.33112049  0.59376068  1
  C  C429  1  0.84853876  0.43752172  0.73730835  1
  O  O430  1  0.80807674  0.46127861  0.73553062  1
  O  O431  1  0.88160135  0.43926049  0.69114838  1
  O  O432  1  0.92204703  0.14896875  0.69848106  1
  C  C433  1  0.90444063  0.24014543  0.65334482  1
  C  C434  1  0.83384172  0.29791403  0.66411973  1
  O  O435  1  0.97736738  0.18438678  0.62773870  1
  C  C436  1  0.86092589  0.24944235  0.68464803  1
  Cu  Cu437  1  0.89300154  0.48272919  0.60929157  1
  C  C438  1  0.92376127  0.37802384  0.55656806  1
  O  O439  1  0.76980704  0.36593141  0.65966463  1
  H  H440  1  0.84422215  0.21773782  0.72028141  1
  C  C441  1  0.93629527  0.18737914  0.66367473  1
  C  C442  1  0.92799066  0.28039431  0.61060011  1
  C  C443  1  0.85584354  0.33769667  0.62065895  1
  H  H444  1  0.83564816  0.37846535  0.60899616  1
  O  O445  1  0.75895008  0.28714182  0.72351360  1
  C  C446  1  0.56973664  0.15793375  0.88015210  1
  C  C447  1  0.58814251  0.24821520  0.97372416  1
  C  C448  1  0.60743693  0.19729603  0.86896604  1
  C  C449  1  0.61552134  0.24412325  0.91395110  1
  C  C450  1  0.65523940  0.28328996  0.89482098  1
  O  O451  1  0.67148531  0.28147228  0.83495668  1
  H  H452  1  0.63379964  0.19180146  0.82700587  1
  O  O453  1  0.67095110  0.31938025  0.93643763  1
  C  C454  1  0.54465984  0.16271754  0.94285251  1
  C  C455  1  0.56037099  0.11394356  0.82582099  1
  O  O456  1  0.51769795  0.08498925  0.82572130  1
  O  O457  1  0.58645806  0.11364340  0.77750383  1
  H  H458  1  0.51682709  0.13245802  0.95664976  1
  O  O459  1  0.67309692  0.03674603  0.85669511  1
  O  O460  1  0.57494095  0.47522747  0.88337643  1
  C  C461  1  0.55122828  0.20875545  0.98745802  1
  Cu  Cu462  1  0.64406669  0.32590511  0.75800312  1
  H  H463  1  0.65642602  0.48027983  0.95221033  1
  C  C464  1  0.71824022  0.01382984  0.84669703  1
  Cu  Cu465  1  0.72610008  0.29792115  0.98919143  1
  Cu  Cu466  1  0.63090252  0.01094907  0.92068207  1
  O  O467  1  0.74830896  0.01999397  0.89086580  1
  H  H468  1  0.65354515  0.00789305  0.75400090  1
  O  O469  1  0.78371437  0.38657279  0.98222658  1
  O  O470  1  0.75221152  0.22077736  0.97478120  1
  O  O471  1  0.98382031  0.30814232  0.77431053  1
  C  C472  1  0.91585761  0.33178248  0.83936313  1
  C  C473  1  0.88591807  0.32368545  0.89805638  1
  H  H474  1  0.79975861  0.42512590  0.85768722  1
  C  C475  1  0.96201849  0.29968165  0.82954318  1
  H  H476  1  0.89807594  0.29316078  0.93672207  1
  C  C477  1  0.85903766  0.39843469  0.79151418  1
  C  C478  1  0.84743432  0.36033282  0.90429909  1
  O  O479  1  0.97858883  0.26864539  0.87708371  1
  C  C480  1  0.90256886  0.36617666  0.78504801  1
  C  C481  1  0.83138335  0.39549774  0.85131197  1
  C  C482  1  0.82646794  0.36541121  0.97194853  1
  H  H483  1  0.99659746  0.45943104  0.95635101  1
  O  O484  1  0.82974922  0.22605824  0.99874302  1
  O  O485  1  0.62622965  0.70704374  0.12295952  1
  H  H486  1  0.67924485  0.61720074  0.10888421  1
  Cu  Cu487  1  0.59934247  0.76175922  0.17285926  1
  O  O488  1  0.63794301  0.82620705  0.17139914  1
  C  C489  1  0.62418571  0.87611476  0.15852509  1
  O  O490  1  0.62577557  0.90015205  0.10113399  1
  Cu  Cu491  1  0.68440147  0.93000883  0.06657075  1
  C  C492  1  0.60731736  0.91460798  0.21304854  1
  C  C493  1  0.65842037  0.59599126  0.06904480  1
  C  C494  1  0.59884818  0.67889179  0.07858222  1
  C  C495  1  0.58268423  0.96435251  0.19593995  1
  C  C496  1  0.71995118  0.52421987  0.04589914  1
  C  C497  1  0.61485882  0.62293308  0.04704886  1
  O  O498  1  0.56213046  0.69978669  0.05911880  1
  H  H499  1  0.57960266  0.96943541  0.13871456  1
  C  C500  1  0.51181322  0.99992491  0.01066100  1
  C  C501  1  0.67251798  0.55009572  0.02744077  1
  O  O502  1  0.74601694  0.55284788  0.08662905  1
  O  O503  1  0.69052067  0.99288473  0.12499170  1
  C  C504  1  0.52170612  0.81257809  0.24054599  1
  O  O505  1  0.55331314  0.77062672  0.23541158  1
  O  O506  1  0.50708817  0.83957605  0.19115510  1
  C  C507  1  0.83870923  0.61056830  0.21334780  1
  Cu  Cu508  1  0.78682770  0.60826359  0.04729235  1
  O  O509  1  0.97217561  0.53672995  0.01998675  1
  H  H510  1  0.76368607  0.57250804  0.18816070  1
  C  C511  1  0.85880426  0.59554856  0.14685684  1
  O  O512  1  0.90532318  0.60289035  0.14079259  1
  C  C513  1  0.78950178  0.59665517  0.22531956  1
  Cu  Cu514  1  0.94405149  0.55964847  0.09451108  1
  O  O515  1  0.83476067  0.57456835  0.09828856  1
  H  H516  1  0.90718692  0.64762957  0.24860457  1
  O  O517  1  0.95971456  0.50756771  0.16411374  1
  O  O518  1  0.86510992  0.99974952  0.17660217  1
  O  O519  1  0.77390215  0.73044653  0.03165397  1
  H  H520  1  0.55274770  0.76044365  0.35588128  1
  C  C521  1  0.59469255  0.93397974  0.33056347  1
  C  C522  1  0.60466829  0.91812557  0.40327750  1
  O  O523  1  0.62867844  0.87710004  0.41972943  1
  C  C524  1  0.52704786  0.79636358  0.36207453  1
  O  O525  1  0.58520799  0.95279798  0.44870828  1
  C  C526  1  0.51706159  0.81382275  0.42789521  1
  H  H527  1  0.63655709  0.85910458  0.29933286  1
  O  O528  1  0.70750113  0.60216237  0.37159233  1
  C  C529  1  0.71917648  0.59764699  0.30840563  1
  C  C530  1  0.61550175  0.89761424  0.28181754  1
  C  C531  1  0.50659597  0.83051159  0.30998560  1
  Cu  Cu532  1  0.68484990  0.53728166  0.40934874  1
  C  C533  1  0.57239764  0.98639683  0.31707860  1
  O  O534  1  0.69024809  0.59157901  0.26311075  1
  O  O535  1  0.67802453  0.57379175  0.49946347  1
  C  C536  1  0.54046284  0.77776141  0.48455540  1
  O  O537  1  0.56865850  0.73313693  0.46890579  1
  C  C538  1  0.77134287  0.60984022  0.28727892  1
  C  C539  1  0.84854183  0.65135275  0.32462737  1
  C  C540  1  0.79964980  0.63729234  0.33701472  1
  H  H541  1  0.78342375  0.65114207  0.38367075  1
  O  O542  1  0.92375861  0.69534324  0.35415088  1
  H  H543  1  0.99763427  0.54320368  0.47181873  1
  C  C544  1  0.87876903  0.68588607  0.37435995  1
  C  C545  1  0.86805908  0.63844845  0.26047740  1
  Cu  Cu546  1  0.97819238  0.67225032  0.40033977  1
  O  O547  1  0.86155239  0.70410576  0.42458822  1
  O  O548  1  0.97810688  0.64388675  0.49296022  1
  C  C549  1  0.61640145  0.55193136  0.57629983  1
  C  C550  1  0.57081391  0.56815884  0.60115191  1
  H  H551  1  0.55001842  0.60484834  0.58215470  1
  C  C552  1  0.63963700  0.59105618  0.52767080  1
  O  O553  1  0.52781176  0.78866617  0.54045692  1
  C  C554  1  0.54998935  0.53463738  0.65247487  1
  C  C555  1  0.72003696  0.74863388  0.57963577  1
  C  C556  1  0.73481574  0.94773409  0.64155861  1
  O  O557  1  0.68267364  0.71196932  0.57113805  1
  O  O558  1  0.65481872  0.97752469  0.55618129  1
  O  O559  1  0.71195682  0.79831923  0.57523333  1
  Cu  Cu560  1  0.62566494  0.71618077  0.51987513  1
  C  C561  1  0.64824838  0.98549295  0.62087845  1
  C  C562  1  0.69181303  0.97053837  0.66582493  1
  H  H563  1  0.73885938  0.93075869  0.58666074  1
  H  H564  1  0.73858674  0.63004107  0.59315974  1
  C  C565  1  0.64238081  0.50421713  0.60134712  1
  C  C566  1  0.68881208  0.99001908  0.73467722  1
  O  O567  1  0.61726943  0.63557512  0.50666446  1
  C  C568  1  0.80845184  0.75640239  0.59666428  1
  C  C569  1  0.86089221  0.67008434  0.60015699  1
  C  C570  1  0.77198446  0.65956919  0.58830797  1
  C  C571  1  0.81881138  0.63879221  0.58927984  1
  O  O572  1  0.81376362  0.89593109  0.60737432  1
  C  C573  1  0.85388151  0.72971903  0.60457569  1
  O  O574  1  0.93798396  0.74081931  0.62672709  1
  O  O575  1  0.79149564  0.54263074  0.57935526  1
  C  C576  1  0.81576610  0.90871957  0.66653831  1
  O  O577  1  0.87037002  0.55538034  0.59002126  1
  C  C578  1  0.76939302  0.71910044  0.58894652  1
  O  O579  1  0.89273445  0.81894620  0.61222590  1
  Cu  Cu580  1  0.99358384  0.77094706  0.58161077  1
  H  H581  1  0.80790286  0.80347092  0.59966345  1
  C  C582  1  0.82565104  0.57284150  0.58912459  1
  H  H583  1  0.89725299  0.64861604  0.60358922  1
  O  O584  1  0.85133387  0.89834151  0.70696108  1
  C  C585  1  0.77085575  0.94044960  0.68959646  1
  O  O586  1  0.96679779  0.90749874  0.64110732  1
  Cu  Cu587  1  0.90838172  0.87710476  0.67092757  1
  C  C588  1  0.89854486  0.76459503  0.61620844  1
  C  C589  1  0.58582258  0.71737550  0.87640418  1
  O  O590  1  0.55061136  0.74640872  0.85802618  1
  O  O591  1  0.58829379  0.66319497  0.87027427  1
  C  C592  1  0.62830865  0.74433623  0.90901694  1
  C  C593  1  0.63095401  0.80460386  0.90777110  1
  C  C594  1  0.67378100  0.89513673  0.93650759  1
  H  H595  1  0.60028504  0.82851517  0.88660620  1
  C  C596  1  0.66969118  0.83213000  0.93896899  1
  O  O597  1  0.64436594  0.92521319  0.90287536  1
  C  C598  1  0.66587318  0.71083088  0.93551585  1
  H  H599  1  0.66725670  0.66336590  0.93573083  1
  C  C600  1  0.70793882  0.79912028  0.97018040  1
  C  C601  1  0.70381907  0.74041523  0.96577144  1
  Cu  Cu602  1  0.53957932  0.61805712  0.83046145  1
  H  H603  1  0.53120703  0.91723033  0.96959530  1
  O  O604  1  0.53234464  0.55481216  0.89171849  1
  C  C605  1  0.60221395  0.54905176  0.96218306  1
  O  O606  1  0.70358430  0.91587470  0.98049931  1
  H  H607  1  0.55203730  0.62100248  0.97801105  1
  C  C608  1  0.64569022  0.52329468  0.97437445  1
  C  C609  1  0.56883685  0.52179864  0.91025292  1
  C  C610  1  0.72866007  0.98580402  0.77896838  1
  C  C611  1  0.58537556  0.59905582  0.99597528  1
  O  O612  1  0.59608589  0.99305360  0.99073354  1
  H  H613  1  0.73714517  0.81633303  0.99862828  1
  C  C614  1  0.50060124  0.94502241  0.98348832  1
  O  O615  1  0.74557743  0.64910302  0.99065440  1
  C  C616  1  0.74404602  0.70461913  0.99961777  1
  C  C617  1  0.99294605  0.87248513  0.89338069  1
  O  O618  1  0.96787288  0.77554518  0.82464708  1
  H  H619  1  0.80343380  0.95043335  0.79046386  1
  H  H620  1  0.95594415  0.85763458  0.89759289  1
  C  C621  1  0.97531087  0.96160277  0.96627692  1
  O  O622  1  0.93349405  0.94630220  0.97255484  1
  C  C623  1  0.77164519  0.95955908  0.75666026  1
