# generated using pymatgen
data_Zn3H16(C2O)16
_symmetry_space_group_name_H-M   'P 1'
_cell_length_a   24.72228948
_cell_length_b   16.57465895
_cell_length_c   17.79224488
_cell_angle_alpha   90.00000000
_cell_angle_beta   90.00000000
_cell_angle_gamma   90.00000000
_symmetry_Int_Tables_number   1
_chemical_formula_structural   Zn3H16(C2O)16
_chemical_formula_sum   'Zn24 H128 C256 O128'
_cell_volume   7290.61283187
_cell_formula_units_Z   8
loop_
 _symmetry_equiv_pos_site_id
 _symmetry_equiv_pos_as_xyz
  1  'x, y, z'
loop_
 _atom_site_type_symbol
 _atom_site_label
 _atom_site_symmetry_multiplicity
 _atom_site_fract_x
 _atom_site_fract_y
 _atom_site_fract_z
 _atom_site_occupancy
  H  H0  1  0.17279485  0.31891185  0.28454266  1
  O  O1  1  0.04488299  0.49603646  0.43395775  1
  O  O2  1  0.04204271  0.08545038  0.05161267  1
  H  H3  1  0.00926515  0.33377970  0.15558743  1
  Zn  Zn4  1  0.08049847  0.02116731  0.15061300  1
  C  C5  1  0.01917039  0.43248924  0.41140440  1
  Zn  Zn6  1  0.10490838  0.18865342  0.43237139  1
  C  C7  1  0.11890722  0.18572753  0.22775930  1
  C  C8  1  0.10231329  0.37796720  0.33527585  1
  O  O9  1  0.16622384  0.18468550  0.21126147  1
  C  C10  1  0.09237041  0.25406050  0.26882246  1
  C  C11  1  0.01522088  0.30974007  0.33498521  1
  C  C12  1  0.12671522  0.31725911  0.29578116  1
  C  C13  1  0.04784894  0.37527644  0.35906225  1
  O  O14  1  0.08813795  0.12437943  0.21100914  1
  H  H15  1  0.01467403  0.19734534  0.26914269  1
  C  C16  1  0.03716035  0.25006852  0.29085649  1
  H  H17  1  0.12415262  0.43140879  0.35867821  1
  H  H18  1  0.04308487  0.20451025  0.12208723  1
  O  O19  1  0.24391771  0.18719666  0.41164735  1
  C  C20  1  0.23789001  0.11336733  0.00876260  1
  C  C21  1  0.03445846  0.14711631  0.47848891  1
  C  C22  1  0.07274677  0.07824617  0.48121558  1
  C  C23  1  0.16730475  0.16009504  0.88819443  1
  O  O24  1  0.08066620  0.37457870  0.58950038  1
  C  C25  1  0.00962736  0.32677537  0.92771344  1
  C  C26  1  0.10311209  0.24701339  0.53771123  1
  C  C27  1  0.15614312  0.09188180  0.93205786  1
  C  C28  1  0.21169288  0.20753723  0.90772088  1
  Zn  Zn29  1  0.19254848  0.37995864  0.72393813  1
  H  H30  1  0.18383365  0.18887187  0.55737016  1
  O  O31  1  0.14883993  0.30958163  0.63986320  1
  O  O32  1  0.18978555  0.30739119  0.82030638  1
  C  C33  1  0.04861638  0.23326197  0.50887853  1
  C  C34  1  0.14262839  0.18297103  0.53406862  1
  H  H35  1  0.13771565  0.18324502  0.84841411  1
  C  C36  1  0.12719899  0.09466422  0.50604790  1
  H  H37  1  0.12125818  0.05690528  0.91761112  1
  C  C38  1  0.11078173  0.31499466  0.59295308  1
  O  O39  1  0.05605340  0.31770819  0.92909788  1
  C  C40  1  0.22573363  0.28597190  0.86880458  1
  H  H41  1  0.15278863  0.04113601  0.51771507  1
  Zn  Zn42  1  0.08550070  0.49061347  0.53579893  1
  C  C43  1  0.24804983  0.18374308  0.96516201  1
  O  O44  1  0.14249916  0.48042315  0.75213921  1
  H  H45  1  0.01464137  0.27331242  0.52647290  1
  C  C46  1  0.19285236  0.06583495  0.98880356  1
  O  O47  1  0.17985720  0.84967644  0.22737660  1
  C  C48  1  0.03738000  0.58481501  0.24449813  1
  C  C49  1  0.09180472  0.60090296  0.22993648  1
  H  H50  1  0.13674605  0.68036334  0.39371056  1
  O  O51  1  0.20081720  0.62155631  0.19324903  1
  O  O52  1  0.21992981  0.67407220  0.29895563  1
  C  C53  1  0.12577376  0.63709975  0.28193285  1
  O  O54  1  0.15989765  0.54184432  0.46917195  1
  C  C55  1  0.03831245  0.83072992  0.17698909  1
  O  O56  1  0.11133996  0.93086681  0.24476121  1
  H  H57  1  0.15760825  0.73867719  0.14689783  1
  C  C58  1  0.09472836  0.81411830  0.17887973  1
  C  C59  1  0.13138888  0.86794333  0.21875404  1
  C  C60  1  0.11482291  0.74889333  0.13687963  1
  Zn  Zn61  1  0.22995476  0.80401990  0.31269126  1
  C  C62  1  0.18658963  0.64024944  0.25622928  1
  C  C63  1  0.02656371  0.71412421  0.09738520  1
  H  H64  1  0.11238159  0.58533696  0.17652327  1
  C  C65  1  0.22877169  0.85130145  0.46174371  1
  C  C66  1  0.08178937  0.69678568  0.09553630  1
  C  C67  1  0.10598109  0.65957754  0.35115114  1
  H  H68  1  0.09939691  0.64356271  0.06604926  1
  O  O69  1  0.13130339  0.97854485  0.05584037  1
  H  H70  1  0.02125829  0.88257263  0.21005003  1
  O  O71  1  0.21346602  0.78292800  0.44178983  1
  C  C72  1  0.05042266  0.64942482  0.36363442  1
  H  H73  1  0.03533943  0.67865161  0.41389514  1
  O  O74  1  0.24104956  0.89723873  0.41046631  1
  C  C75  1  0.00508709  0.77887851  0.13839831  1
  H  H76  1  0.24881081  0.59172509  0.40195176  1
  H  H77  1  0.00785420  0.56040422  0.20182479  1
  C  C78  1  0.01533275  0.61285156  0.31310909  1
  C  C79  1  0.18081765  0.99508241  0.04427561  1
  O  O80  1  0.21546196  0.96428724  0.08308028  1
  C  C81  1  0.04875161  0.99700713  0.48513005  1
  O  O82  1  0.00505135  0.98532762  0.46416357  1
  C  C83  1  0.07681141  0.72131648  0.57081535  1
  C  C84  1  0.09148300  0.80167586  0.56303616  1
  C  C85  1  0.13793266  0.62778018  0.75415713  1
  C  C86  1  0.15686931  0.72243235  0.94571130  1
  H  H87  1  0.08078742  0.89012969  0.96169250  1
  C  C88  1  0.14293245  0.80319881  0.95676500  1
  C  C89  1  0.06554781  0.68777977  0.91057038  1
  C  C90  1  0.24420373  0.91332451  0.69376369  1
  O  O91  1  0.16469156  0.54629236  0.58440217  1
  C  C92  1  0.08260414  0.77468320  0.74296421  1
  C  C93  1  0.11739989  0.66533108  0.92369266  1
  O  O94  1  0.06517740  0.91743039  0.74413771  1
  C  C95  1  0.16443245  0.69916329  0.76822649  1
  C  C96  1  0.05243965  0.76923866  0.92345486  1
  C  C97  1  0.13592898  0.77146030  0.76743878  1
  H  H98  1  0.13434868  0.81592091  0.57651273  1
  C  C99  1  0.08308956  0.62620802  0.73921411  1
  H  H100  1  0.12589365  0.60112123  0.91254293  1
  O  O101  1  0.22863900  0.89188306  0.82629406  1
  H  H102  1  0.03602518  0.64344643  0.88645275  1
  O  O103  1  0.03250454  0.57000713  0.59944593  1
  C  C104  1  0.05629649  0.70032773  0.72890943  1
  C  C105  1  0.04560569  0.84898156  0.74081176  1
  C  C106  1  0.18884660  0.55964660  0.52381492  1
  C  C107  1  0.08937066  0.82903324  0.94805157  1
  H  H108  1  0.15920730  0.82801346  0.78283095  1
  C  C109  1  0.16697860  0.54669367  0.76209772  1
  O  O110  1  0.21696590  0.54540033  0.76468069  1
  H  H111  1  0.17311217  0.84915927  0.96820903  1
  H  H112  1  0.20681868  0.69857216  0.78415516  1
  H  H113  1  0.10506626  0.68035745  0.59745901  1
  C  C114  1  0.02247938  0.70140160  0.55781655  1
  C  C115  1  0.21594705  0.70653277  0.95538449  1
  C  C116  1  0.23114136  0.81626769  0.59784872  1
  C  C117  1  0.24847705  0.95813312  0.55917669  1
  C  C118  1  0.05804393  0.86304729  0.53278559  1
  C  C119  1  0.24280437  0.60082071  0.52370584  1
  C  C120  1  0.00377440  0.83554996  0.51544730  1
  H  H121  1  0.06324558  0.56841153  0.72475890  1
  O  O122  1  0.07908117  0.93647514  0.52221931  1
  H  H123  1  0.01167916  0.69986439  0.71677026  1
  C  C124  1  0.23254856  0.83275450  0.67391308  1
  C  C125  1  0.23392421  0.87685671  0.54226189  1
  C  C126  1  0.23917859  0.94452320  0.77326592  1
  H  H127  1  0.22414305  0.75382998  0.57437140  1
  H  H128  1  0.22970908  0.78704495  0.71819933  1
  O  O129  1  0.23619688  0.64027084  0.95447867  1
  O  O130  1  0.24736922  0.76887591  0.96698712  1
  H  H131  1  0.24669200  0.60930687  0.65084409  1
  H  H132  1  0.46241953  0.40960466  0.31160176  1
  C  C133  1  0.43651719  0.00924435  0.09652021  1
  Zn  Zn134  1  0.40068070  0.31803250  0.05618022  1
  C  C135  1  0.29088333  0.19972483  0.39570643  1
  H  H136  1  0.27965392  0.03147806  0.41905127  1
  C  C137  1  0.37681231  0.10544807  0.14985649  1
  O  O138  1  0.30622064  0.27152354  0.37348587  1
  H  H139  1  0.40085277  0.22050942  0.38274482  1
  C  C140  1  0.38858648  0.15785374  0.39178766  1
  C  C141  1  0.43028931  0.10051280  0.39855752  1
  Zn  Zn142  1  0.34416976  0.30041426  0.26899088  1
  C  C143  1  0.34419517  0.18087933  0.13400540  1
  O  O144  1  0.44933561  0.33828066  0.16406720  1
  C  C145  1  0.33315844  0.13366468  0.39805158  1
  O  O146  1  0.31640392  0.20961405  0.18567698  1
  O  O147  1  0.43130808  0.26708021  0.26417050  1
  O  O148  1  0.34707938  0.21385725  0.07060481  1
  C  C149  1  0.32227943  0.05143723  0.41420746  1
  C  C150  1  0.46491042  0.29836950  0.21835309  1
  H  H151  1  0.35691743  0.09740578  0.26743582  1
  C  C152  1  0.36402431  0.44655201  0.35416377  1
  O  O153  1  0.36782697  0.41669864  0.28781290  1
  H  H154  1  0.40187132  0.10235467  0.03082648  1
  C  C155  1  0.46403366  0.42836912  0.37236462  1
  H  H156  1  0.47191073  0.12130338  0.39201524  1
  C  C157  1  0.40625881  0.07596544  0.08676774  1
  C  C158  1  0.38165720  0.06910251  0.22019149  1
  C  C159  1  0.41632002  0.02046828  0.41281075  1
  O  O160  1  0.36594759  0.43010408  0.05135653  1
  H  H161  1  0.26235642  0.09852538  0.05941229  1
  C  C162  1  0.41462769  0.45075812  0.40490561  1
  O  O163  1  0.32348128  0.47336108  0.37872243  1
  C  C164  1  0.41153981  0.46903161  0.48329683  1
  O  O165  1  0.39582650  0.33416486  0.78849460  1
  C  C166  1  0.33957315  0.20526146  0.56206089  1
  C  C167  1  0.41547517  0.47306127  0.76895790  1
  C  C168  1  0.45756754  0.47510331  0.52527146  1
  H  H169  1  0.33180907  0.44391334  0.78225242  1
  C  C170  1  0.36046553  0.12884453  0.57424052  1
  C  C171  1  0.32253811  0.21759497  0.69386743  1
  H  H172  1  0.30762817  0.25006367  0.74440777  1
  H  H173  1  0.48577538  0.13162409  0.69198542  1
  H  H174  1  0.28613556  0.21825797  0.97376406  1
  H  H175  1  0.37547523  0.09326708  0.52851235  1
  H  H176  1  0.33453509  0.23203279  0.50510821  1
  C  C177  1  0.32071109  0.25051279  0.62236390  1
  H  H178  1  0.33336421  0.10874319  0.76133426  1
  C  C179  1  0.33858007  0.13687369  0.70477521  1
  C  C180  1  0.35746317  0.08895340  0.64572284  1
  C  C181  1  0.29101513  0.33140938  0.61801753  1
  C  C182  1  0.43073294  0.38611097  0.77632932  1
  O  O183  1  0.26937201  0.36060491  0.67795573  1
  O  O184  1  0.29183791  0.36603690  0.55948109  1
  O  O185  1  0.49838878  0.26442916  0.61227785  1
  O  O186  1  0.46277044  0.29668055  0.98462477  1
  O  O187  1  0.48144862  0.37340505  0.77216206  1
  H  H188  1  0.45771553  0.49950824  0.58497531  1
  C  C189  1  0.36041684  0.49119520  0.77386756  1
  O  O190  1  0.25505848  0.01126984  0.78910220  1
  O  O191  1  0.26509205  0.32244164  0.88833819  1
  H  H192  1  0.25779130  0.00432105  0.51783424  1
  H  H193  1  0.26449905  0.03024800  0.65957953  1
  O  O194  1  0.33772941  0.48960150  0.94748510  1
  C  C195  1  0.37304528  0.00108521  0.65784467  1
  H  H196  1  0.37197379  0.47944873  0.51268026  1
  C  C197  1  0.37060585  0.48049157  0.99666311  1
  C  C198  1  0.46016789  0.53478148  0.05292583  1
  H  H199  1  0.44454461  0.72956224  0.04518174  1
  O  O200  1  0.36457291  0.70592863  0.29099380  1
  C  C201  1  0.32181242  0.64525533  0.45369659  1
  C  C202  1  0.27024603  0.61115783  0.45548847  1
  C  C203  1  0.32490460  0.84983357  0.14497330  1
  C  C204  1  0.37753445  0.81886476  0.03712547  1
  O  O205  1  0.49510594  0.88252722  0.24519009  1
  H  H206  1  0.34388804  0.65055525  0.40000772  1
  C  C207  1  0.48128503  0.89759333  0.17734654  1
  H  H208  1  0.34996607  0.93040483  0.43607037  1
  H  H209  1  0.31354085  0.91665834  0.03949965  1
  O  O210  1  0.31671249  0.81412038  0.30455662  1
  H  H211  1  0.45111162  0.50562827  0.10785788  1
  C  C212  1  0.35222120  0.78916539  0.18206702  1
  C  C213  1  0.34463416  0.76467925  0.26696627  1
  C  C214  1  0.45910111  0.95968461  0.40910984  1
  C  C215  1  0.40891875  0.75857372  0.07173119  1
  H  H216  1  0.40920562  0.69114804  0.17335045  1
  O  O217  1  0.44763592  0.88607609  0.42698637  1
  C  C218  1  0.38913365  0.74131118  0.14434682  1
  C  C219  1  0.33762334  0.86749927  0.06867530  1
  O  O220  1  0.42369446  0.72003320  0.46260547  1
  H  H221  1  0.29588247  0.88919054  0.17876064  1
  Zn  Zn222  1  0.49937537  0.79446747  0.45762260  1
  C  C223  1  0.41244791  0.99931799  0.22746384  1
  C  C224  1  0.36134469  0.99432529  0.42451859  1
  H  H225  1  0.45942445  0.98164310  0.05012196  1
  H  H226  1  0.41172505  0.96087899  0.27948623  1
  C  C227  1  0.44002917  0.97041979  0.16815250  1
  C  C228  1  0.47040448  0.63061551  0.92326531  1
  C  C229  1  0.45096059  0.53951510  0.75779524  1
  O  O230  1  0.38644852  0.77153904  0.74594387  1
  O  O231  1  0.43111645  0.79599364  0.92373665  1
  C  C232  1  0.34485369  0.66376035  0.52438333  1
  O  O233  1  0.38906466  0.95634502  0.60494795  1
  H  H234  1  0.46189872  0.66723855  0.75318772  1
  C  C235  1  0.35512502  0.71469138  0.76340137  1
  O  O236  1  0.30645003  0.73046726  0.78408582  1
  C  C237  1  0.37571929  0.63136821  0.76121402  1
  Zn  Zn238  1  0.40445514  0.84291902  0.64679263  1
  C  C239  1  0.42393834  0.58109300  0.92979504  1
  C  C240  1  0.25277062  0.97326278  0.63655828  1
  C  C241  1  0.43193941  0.61763015  0.75129148  1
  C  C242  1  0.39799137  0.70639696  0.52142391  1
  O  O243  1  0.35903480  0.86639689  0.91153055  1
  O  O244  1  0.49978425  0.83814994  0.65516770  1
  O  O245  1  0.41852651  0.72665091  0.58323752  1
  H  H246  1  0.29662533  0.58110496  0.78283405  1
  C  C247  1  0.31918834  0.65049127  0.59454831  1
  C  C248  1  0.33912362  0.56853532  0.77234142  1
  C  C249  1  0.26739571  0.61979891  0.59511489  1
  H  H250  1  0.34496511  0.66278070  0.64367693  1
  H  H251  1  0.47630552  0.66891793  0.87477591  1
  C  C252  1  0.39317378  0.82803825  0.95335309  1
  Zn  Zn253  1  0.29004025  0.81747342  0.87143734  1
  H  H254  1  0.39358915  0.57576639  0.88421666  1
  O  O255  1  0.36569714  0.96972372  0.71851583  1
  H  H256  1  0.49532807  0.52939825  0.76084467  1
  H  H257  1  0.48090278  0.97812944  0.70268899  1
  C  C258  1  0.42158179  0.53357142  0.99462356  1
  Zn  Zn259  1  0.59905570  0.25547460  0.20033166  1
  C  C260  1  0.68560663  0.47260558  0.06920169  1
  Zn  Zn261  1  0.72330061  0.11003577  0.28793689  1
  C  C262  1  0.56050577  0.35651956  0.23966816  1
  C  C263  1  0.63279861  0.27396417  0.31225669  1
  O  O264  1  0.67753869  0.31767261  0.41649956  1
  H  H265  1  0.60607944  0.15178614  0.34964891  1
  H  H266  1  0.71281727  0.06982696  0.10348181  1
  H  H267  1  0.54929118  0.39963019  0.39190411  1
  C  C268  1  0.68064453  0.26973279  0.36230600  1
  H  H269  1  0.63764580  0.40834442  0.29815645  1
  C  C270  1  0.62426337  0.05427694  0.18985758  1
  C  C271  1  0.64085084  0.41880674  0.04503282  1
  C  C272  1  0.58967767  0.45562649  0.03228964  1
  O  O273  1  0.68775679  0.06360718  0.39714831  1
  C  C274  1  0.59548055  0.20541122  0.31270814  1
  O  O275  1  0.71641846  0.21860503  0.35354685  1
  O  O276  1  0.58501264  0.03653335  0.22919554  1
  C  C277  1  0.61705270  0.35022829  0.28005366  1
  H  H278  1  0.56566846  0.10309178  0.47354140  1
  C  C279  1  0.51064665  0.42394576  0.41697504  1
  C  C280  1  0.64989857  0.33466152  0.04385183  1
  O  O281  1  0.65692040  0.11107919  0.20360499  1
  H  H282  1  0.69083512  0.31013038  0.05806677  1
  O  O283  1  0.74924528  0.43637849  0.33302910  1
  C  C284  1  0.50746146  0.45062127  0.49272541  1
  O  O285  1  0.73002276  0.44056113  0.08925148  1
  C  C286  1  0.68738611  0.01855120  0.09075307  1
  H  H287  1  0.54633365  0.41805973  0.22632569  1
  H  H288  1  0.66019385  0.49036091  0.39557692  1
  C  C289  1  0.53741773  0.21339794  0.27776750  1
  C  C290  1  0.52289185  0.28813110  0.23647678  1
  H  H291  1  0.60838221  0.22306114  0.03030025  1
  C  C292  1  0.60521650  0.28773071  0.02717595  1
  C  C293  1  0.54568965  0.40736284  0.01208363  1
  H  H294  1  0.50468892  0.16722936  0.28729728  1
  O  O295  1  0.74221247  0.22394084  0.09962646  1
  H  H296  1  0.50481968  0.42836016  0.00074923  1
  O  O297  1  0.51965512  0.19529202  0.00178501  1
  C  C298  1  0.55544644  0.32326862  0.01222549  1
  O  O299  1  0.72119610  0.35513522  0.54992716  1
  H  H300  1  0.70789678  0.06980473  0.52363716  1
  H  H301  1  0.55134089  0.08714242  0.89758400  1
  C  C302  1  0.55861870  0.44723911  0.53967589  1
  C  C303  1  0.50857639  0.26663205  0.99739497  1
  C  C304  1  0.58110043  0.16542058  0.80244842  1
  C  C305  1  0.61842417  0.23649307  0.69011429  1
  C  C306  1  0.60197025  0.16175058  0.73030265  1
  C  C307  1  0.61072360  0.08886365  0.69156568  1
  C  C308  1  0.71878953  0.42556417  0.66947359  1
  C  C309  1  0.52645841  0.12823049  0.58264864  1
  H  H310  1  0.57117445  0.22499503  0.82837522  1
  C  C311  1  0.56600733  0.09300560  0.83909426  1
  C  C312  1  0.57896365  0.02255383  0.80403277  1
  O  O313  1  0.64188954  0.23340156  0.62953950  1
  O  O314  1  0.59956079  0.29915581  0.72013947  1
  C  C315  1  0.52490428  0.21909901  0.57162285  1
  C  C316  1  0.60115514  0.01917834  0.73125951  1
  H  H317  1  0.72411673  0.24015059  0.85077328  1
  H  H318  1  0.62609734  0.09262815  0.63226295  1
  H  H319  1  0.70630672  0.02485649  0.65786473  1
  C  C320  1  0.67768050  0.47703442  0.65084716  1
  O  O321  1  0.55733642  0.46513824  0.60668514  1
  Zn  Zn322  1  0.53233344  0.36592676  0.67541637  1
  H  H323  1  0.66362639  0.47784140  0.59163520  1
  C  C324  1  0.74243974  0.36019049  0.61846780  1
  O  O325  1  0.74014364  0.35337058  0.91238817  1
  C  C326  1  0.55074892  0.07874515  0.52808317  1
  H  H327  1  0.74208638  0.48257377  0.85379501  1
  O  O328  1  0.60373792  0.43088601  0.51165202  1
  Zn  Zn329  1  0.63907681  0.31031950  0.52579696  1
  C  C330  1  0.72434382  0.47870915  0.79615260  1
  C  C331  1  0.69676911  0.00988393  0.54378552  1
  C  C332  1  0.50189919  0.09294718  0.64742349  1
  C  C333  1  0.74267675  0.42585157  0.74128481  1
  C  C334  1  0.50208966  0.00901914  0.65533162  1
  O  O335  1  0.55400821  0.24626803  0.51990587  1
  H  H336  1  0.68002562  0.75932636  0.25876850  1
  C  C337  1  0.67301975  0.90301560  0.01282471  1
  C  C338  1  0.62373818  0.60752566  0.37292316  1
  C  C339  1  0.66084753  0.54785417  0.36528902  1
  C  C340  1  0.67092642  0.99348877  0.40742455  1
  O  O341  1  0.59718054  0.81103061  0.31910504  1
  H  H342  1  0.64330634  0.84290805  0.45172114  1
  H  H343  1  0.73868260  0.79518620  0.05747750  1
  O  O344  1  0.64886220  0.95399640  0.35553969  1
  C  C345  1  0.67513917  0.69969071  0.28790061  1
  H  H346  1  0.58062619  0.89920497  0.15090321  1
  H  H347  1  0.56437047  0.94991443  0.48988818  1
  C  C348  1  0.61238335  0.92459729  0.11398279  1
  Zn  Zn349  1  0.56442158  0.93023011  0.30787855  1
  C  C350  1  0.70557818  0.96993528  0.03278618  1
  C  C351  1  0.70507671  0.56319371  0.31797544  1
  H  H352  1  0.58651940  0.60486186  0.40893001  1
  C  C353  1  0.71162129  0.63632216  0.27795415  1
  O  O354  1  0.54885522  0.72268641  0.38892713  1
  O  O355  1  0.50529014  0.98123500  0.38700640  1
  O  O356  1  0.67356286  0.54548888  0.07584164  1
  C  C357  1  0.62968888  0.68282611  0.33537811  1
  H  H358  1  0.53303563  0.59208055  0.09497122  1
  C  C359  1  0.58676783  0.74198324  0.34648530  1
  C  C360  1  0.62583912  0.87778296  0.05121936  1
  H  H361  1  0.60334254  0.82037825  0.04146580  1
  C  C362  1  0.67651728  0.95985223  0.48552626  1
  C  C363  1  0.64015934  0.99694270  0.12947449  1
  H  H364  1  0.74158817  0.92181278  0.14397967  1
  O  O365  1  0.59099348  0.68852182  0.02463251  1
  H  H366  1  0.58873030  0.52330198  0.03141754  1
  H  H367  1  0.74412154  0.98323728  0.00621870  1
  H  H368  1  0.74644519  0.63833462  0.24080900  1
  C  C369  1  0.50323721  0.59000530  0.05041021  1
  O  O370  1  0.50015246  0.86624153  0.12382306  1
  C  C371  1  0.66180965  0.87931634  0.49848863  1
  C  C372  1  0.52842430  0.96044594  0.60284350  1
  C  C373  1  0.69838091  0.97939586  0.61500025  1
  O  O374  1  0.56630178  0.87471823  0.81117755  1
  H  H375  1  0.62957530  0.57775291  0.69260312  1
  C  C376  1  0.66652400  0.84702499  0.56955876  1
  C  C377  1  0.68256708  0.86723028  0.70884880  1
  H  H378  1  0.65524590  0.78196453  0.58499430  1
  O  O379  1  0.66672579  0.79769057  0.72061962  1
  O  O380  1  0.53761410  0.95325409  0.90261301  1
  O  O381  1  0.66898176  0.78344478  0.93317048  1
  C  C382  1  0.55985567  0.94509652  0.84334254  1
  O  O383  1  0.68651093  0.59388740  0.89215892  1
  O  O384  1  0.63613568  0.64894572  0.80493708  1
  C  C385  1  0.68537201  0.89778651  0.62707029  1
  C  C386  1  0.68401154  0.53059614  0.77442567  1
  C  C387  1  0.65857110  0.53112184  0.70491710  1
  C  C388  1  0.52709242  0.87059707  0.60219665  1
  Zn  Zn389  1  0.67301282  0.65074111  0.99769919  1
  O  O390  1  0.55991484  0.72799061  0.91557552  1
  Zn  Zn391  1  0.61766317  0.77828918  0.83038340  1
  H  H392  1  0.60668685  0.96214627  0.70219547  1
  C  C393  1  0.66549445  0.59473539  0.82874124  1
  C  C394  1  0.55624825  0.68582286  0.97442943  1
  O  O395  1  0.69241661  0.91546078  0.76077715  1
  C  C396  1  0.69220227  0.85074191  0.95116566  1
  O  O397  1  0.54917534  0.82883501  0.55266060  1
  C  C398  1  0.55241840  0.99453797  0.53566484  1
  H  H399  1  0.73392232  0.58614366  0.60230507  1
  C  C400  1  0.50569686  0.63628647  0.98458632  1
  O  O401  1  0.73579469  0.86985154  0.92379183  1
  C  C402  1  0.91243472  0.18484058  0.05164149  1
  C  C403  1  0.82210006  0.04261556  0.12344887  1
  C  C404  1  0.92659610  0.31350217  0.10960786  1
  C  C405  1  0.93551622  0.08235516  0.27433943  1
  C  C406  1  0.90109667  0.39065657  0.13871611  1
  H  H407  1  0.99187454  0.13057941  0.47292749  1
  Zn  Zn408  1  0.76899643  0.38868420  0.44409699  1
  C  C409  1  0.88384713  0.22249760  0.33237405  1
  H  H410  1  0.87572426  0.25676927  0.21686515  1
  C  C411  1  0.79991058  0.10690149  0.08509749  1
  O  O412  1  0.83343968  0.31332950  0.41889987  1
  Zn  Zn413  1  0.87192010  0.47917920  0.27346915  1
  C  C414  1  0.90391531  0.16345396  0.38042308  1
  H  H415  1  0.97449940  0.30454729  0.35759456  1
  C  C416  1  0.85180330  0.29975381  0.35482163  1
  O  O417  1  0.77179686  0.16443113  0.20030569  1
  C  C418  1  0.89169264  0.26093598  0.07009805  1
  H  H419  1  0.91964644  0.13427483  0.16417402  1
  O  O420  1  0.84818225  0.35316731  0.30818004  1
  C  C421  1  0.89010795  0.21041607  0.25443279  1
  C  C422  1  0.91341711  0.14088102  0.22437741  1
  C  C423  1  0.99048793  0.08781427  0.04467663  1
  O  O424  1  0.96923206  0.42637211  0.42013136  1
  C  C425  1  0.96442083  0.16475452  0.07319190  1
  O  O426  1  0.85227164  0.39627962  0.12291324  1
  H  H427  1  0.84873289  0.27406017  0.05621264  1
  O  O428  1  0.92455898  0.43904297  0.18153003  1
  C  C429  1  0.98074816  0.29362429  0.12899782  1
  C  C430  1  0.93002378  0.09429302  0.35117690  1
  C  C431  1  0.76897349  0.17295903  0.12910138  1
  H  H432  1  0.90308855  0.17741769  0.44235596  1
  Zn  Zn433  1  0.80518698  0.47410332  0.04112943  1
  H  H434  1  0.94983751  0.05415123  0.38969802  1
  H  H435  1  0.82270281  0.05296875  0.18530531  1
  C  C436  1  0.97280489  0.01130529  0.24817333  1
  C  C437  1  0.79838411  0.10356984  0.00679274  1
  C  C438  1  0.99897295  0.21943584  0.11089026  1
  O  O439  1  0.98710737  0.00373198  0.18105758  1
  O  O440  1  0.96686309  0.03773971  0.00755413  1
  H  H441  1  0.89064600  0.14233008  0.01680254  1
  C  C442  1  0.88681108  0.44676228  0.83323262  1
  C  C443  1  0.87303785  0.16339373  0.85487374  1
  H  H444  1  0.77638864  0.38529250  0.74899470  1
  H  H445  1  0.91672982  0.34722472  0.76432238  1
  C  C446  1  0.82070639  0.04059078  0.96538611  1
  O  O447  1  0.93500462  0.34026490  0.63138622  1
  H  H448  1  0.90470684  0.42007340  0.88520250  1
  H  H449  1  0.88929891  0.27864686  0.92130560  1
  C  C450  1  0.76574093  0.21383224  0.84862881  1
  C  C451  1  0.85932439  0.23832793  0.88768041  1
  C  C452  1  0.77944384  0.13922689  0.81569229  1
  C  C453  1  0.88540906  0.44250734  0.69774368  1
  C  C454  1  0.90608423  0.40279093  0.62889579  1
  C  C455  1  0.85069555  0.03823625  0.78101164  1
  C  C456  1  0.83397414  0.11647752  0.81885262  1
  H  H457  1  0.91564017  0.14012243  0.85998579  1
  C  C458  1  0.89612288  0.40607739  0.76593094  1
  H  H459  1  0.81894767  0.04463329  0.90053560  1
  C  C460  1  0.80555835  0.25983898  0.88656479  1
  O  O461  1  0.89409759  0.43593889  0.56695724  1
  O  O462  1  0.81820891  0.37741536  0.96229118  1
  O  O463  1  0.77407725  0.31463552  0.64189264  1
  O  O464  1  0.96338616  0.33784449  0.92617321  1
  C  C465  1  0.78619233  0.33478058  0.92455732  1
  H  H466  1  0.75182881  0.10151869  0.78332028  1
  O  O467  1  0.89938269  0.01809466  0.78808935  1
  H  H468  1  0.77399134  0.15336691  0.98113130  1
  C  C469  1  0.78389485  0.65681112  0.08108169  1
  C  C470  1  0.82115827  0.72586158  0.19987625  1
  Zn  Zn471  1  0.92152380  0.51928556  0.47732961  1
  C  C472  1  0.79178622  0.93617956  0.27165550  1
  O  O473  1  0.83853038  0.52994986  0.44352445  1
  O  O474  1  0.93893286  0.68241438  0.05851165  1
  O  O475  1  0.80971455  0.59728496  0.09628379  1
  H  H476  1  0.96091222  0.78472006  0.14011931  1
  H  H477  1  0.97357651  0.87740096  0.49120900  1
  O  O478  1  0.92922833  0.57211507  0.27889058  1
  O  O479  1  0.98201735  0.95668962  0.29364784  1
  C  C480  1  0.79996634  0.54996253  0.48768096  1
  C  C481  1  0.76351926  0.86575589  0.15636967  1
  O  O482  1  0.82017266  0.93424015  0.32637588  1
  C  C483  1  0.79132545  0.72766537  0.13456521  1
  H  H484  1  0.86808652  0.92717622  0.10698617  1
  C  C485  1  0.79311053  0.86113707  0.22108106  1
  H  H486  1  0.84501795  0.66692645  0.21664152  1
  O  O487  1  0.79308730  0.53173948  0.27356226  1
  O  O488  1  0.93604756  0.61857607  0.39031458  1
  C  C489  1  0.82159308  0.79470260  0.24491537  1
  H  H490  1  0.84393455  0.79469129  0.30064743  1
  C  C491  1  0.95640220  0.60634782  0.32934165  1
  C  C492  1  0.84559211  0.97841864  0.08348028  1
  O  O493  1  0.75195287  0.66621335  0.02709763  1
  O  O494  1  0.99863482  0.59199647  0.03402156  1
  H  H495  1  0.88394240  0.65344056  0.48816566  1
  C  C496  1  0.76199040  0.79661137  0.11265941  1
  C  C497  1  0.83906692  0.97283845  0.00487561  1
  C  C498  1  0.98790665  0.65529176  0.06106836  1
  O  O499  1  0.75681357  0.98917532  0.25624482  1
  O  O500  1  0.75603810  0.51177087  0.48551594  1
  C  C501  1  0.75116915  0.50572891  0.30670324  1
  O  O502  1  0.86885701  0.83695564  0.00468937  1
  C  C503  1  0.77002118  0.62722030  0.60068460  1
  O  O504  1  0.98306744  0.86808654  0.90046009  1
  Zn  Zn505  1  0.89054629  0.72024826  0.96957701  1
  C  C506  1  0.78068529  0.67726580  0.66168624  1
  O  O507  1  0.95878499  0.74048819  0.89766130  1
  C  C508  1  0.85694746  0.66336593  0.53979852  1
  O  O509  1  0.87903596  0.80717382  0.74059626  1
  C  C510  1  0.85613948  0.56033556  0.91099202  1
  C  C511  1  0.86034323  0.52014178  0.69994677  1
  O  O512  1  0.95058931  0.60241790  0.56430700  1
  C  C513  1  0.82939984  0.72252468  0.65652505  1
  C  C514  1  0.83508861  0.77248152  0.72590809  1
  C  C515  1  0.98540650  0.75767797  0.53043337  1
  H  H516  1  0.85247516  0.55186610  0.64804257  1
  H  H517  1  0.83697819  0.62546084  0.76172330  1
  O  O518  1  0.79594871  0.78059174  0.76971481  1
  Zn  Zn519  1  0.92465234  0.88402296  0.81084952  1
  C  C520  1  0.81013027  0.61852334  0.54485605  1
  C  C521  1  0.85427087  0.89524168  0.96593611  1
  C  C522  1  0.85081239  0.56266872  0.76561447  1
  Zn  Zn523  1  0.77059321  0.89812832  0.81998773  1
  H  H524  1  0.90597090  0.74962978  0.60662723  1
  C  C525  1  0.86777093  0.71708784  0.60036861  1
  O  O526  1  0.84968430  0.89291746  0.89536218  1
  O  O527  1  0.84393649  0.63404655  0.91634178  1
  H  H528  1  0.75285540  0.68667934  0.70965941  1
  O  O529  1  0.81796994  0.98695277  0.75499056  1
  C  C530  1  0.99906403  0.61958714  0.57400606  1
  C  C531  1  0.86106977  0.52291252  0.83361538  1
  O  O532  1  0.86880675  0.52064720  0.96762728  1
  C  C533  1  0.99507748  0.79398862  0.91071947  1
  H  H534  1  0.94362310  0.74272313  0.51835510  1
  O  O535  1  0.99580837  0.83590834  0.73471405  1
