# generated using pymatgen
data_ZnHC4O3
_symmetry_space_group_name_H-M   'P 1'
_cell_length_a   22.66729765
_cell_length_b   18.56298776
_cell_length_c   12.00377707
_cell_angle_alpha   90.00000000
_cell_angle_beta   90.00000000
_cell_angle_gamma   90.00000000
_symmetry_Int_Tables_number   1
_chemical_formula_structural   ZnHC4O3
_chemical_formula_sum   'Zn36 H36 C144 O108'
_cell_volume   5050.86251406
_cell_formula_units_Z   36
loop_
 _symmetry_equiv_pos_site_id
 _symmetry_equiv_pos_as_xyz
  1  'x, y, z'
loop_
 _atom_site_type_symbol
 _atom_site_label
 _atom_site_symmetry_multiplicity
 _atom_site_fract_x
 _atom_site_fract_y
 _atom_site_fract_z
 _atom_site_occupancy
  C  C0  1  0.14381077  0.31840423  0.42608169  1
  O  O1  1  0.21972335  0.25334990  0.06273321  1
  Zn  Zn2  1  0.00433446  0.07899614  0.22590590  1
  O  O3  1  0.03465851  0.14416918  0.05400086  1
  H  H4  1  0.18253213  0.36654503  0.05183446  1
  Zn  Zn5  1  0.23011133  0.03776282  0.29473250  1
  C  C6  1  0.04602343  0.30243512  0.32507426  1
  O  O7  1  0.15093722  0.11583490  0.14961622  1
  C  C8  1  0.18701264  0.46447230  0.15038432  1
  C  C9  1  0.18267023  0.05901717  0.14510298  1
  C  C10  1  0.23538773  0.34771502  0.19623929  1
  H  H11  1  0.09310898  0.13737118  0.39210955  1
  H  H12  1  0.08661686  0.39960914  0.34385922  1
  C  C13  1  0.04306540  0.22555636  0.34680978  1
  Zn  Zn14  1  0.12848487  0.19717981  0.03814041  1
  C  C15  1  0.20212283  0.39042765  0.12880504  1
  C  C16  1  0.14096810  0.23863018  0.43369799  1
  C  C17  1  0.09214955  0.34142141  0.36539137  1
  O  O18  1  0.14994805  0.49961286  0.08918204  1
  C  C19  1  0.09495529  0.19834145  0.39399352  1
  Zn  Zn20  1  0.01476977  0.46510305  0.45327603  1
  O  O21  1  0.17753002  0.36491147  0.46639235  1
  C  C22  1  0.22137170  0.49253165  0.24159034  1
  C  C23  1  0.18962070  0.19987915  0.48865329  1
  C  C24  1  0.24451347  0.27260762  0.15005427  1
  O  O25  1  0.18318709  0.13163918  0.49281758  1
  Zn  Zn26  1  0.03581734  0.00873131  0.92685792  1
  C  C27  1  0.08221641  0.27097163  0.78817419  1
  C  C28  1  0.06480927  0.28784414  0.68411475  1
  O  O29  1  0.01749945  0.36691934  0.55496754  1
  C  C30  1  0.02207711  0.48442283  0.70838994  1
  C  C31  1  0.03929075  0.41152517  0.73366699  1
  C  C32  1  0.10457378  0.19370512  0.79141848  1
  H  H33  1  0.06747942  0.24727314  0.61930557  1
  O  O34  1  0.08566795  0.15591242  0.71319992  1
  Zn  Zn35  1  0.11860355  0.08175488  0.59947345  1
  O  O36  1  0.13793123  0.17261957  0.86824487  1
  C  C37  1  0.07893360  0.32355750  0.87691872  1
  C  C38  1  0.06038769  0.39475492  0.83635728  1
  H  H39  1  0.05663989  0.43747609  0.90071055  1
  C  C40  1  0.03939925  0.35562884  0.64756973  1
  O  O41  1  0.03932738  0.04964026  0.51735622  1
  O  O42  1  0.24507294  0.42842884  0.66762415  1
  O  O43  1  0.09689899  0.30278688  0.96814379  1
  O  O44  1  0.23552371  0.22810120  0.52797622  1
  O  O45  1  0.13996093  0.74612321  0.10074966  1
  Zn  Zn46  1  0.14078803  0.61366147  0.07606800  1
  C  C47  1  0.22463004  0.57030198  0.27588260  1
  C  C48  1  0.20376677  0.93498232  0.23038187  1
  C  C49  1  0.06150180  0.92703216  0.46756169  1
  O  O50  1  0.05566728  0.60353907  0.15725676  1
  O  O51  1  0.09637739  0.89574936  0.21356184  1
  O  O52  1  0.05463897  0.74973212  0.33384390  1
  O  O53  1  0.08257820  0.53458521  0.40342203  1
  O  O54  1  0.19771768  0.61800195  0.22691688  1
  Zn  Zn55  1  0.07054902  0.63788167  0.33411316  1
  C  C56  1  0.23963112  0.78582980  0.05266060  1
  C  C57  1  0.10219939  0.95981978  0.18354505  1
  Zn  Zn58  1  0.05020945  0.79669772  0.16373150  1
  H  H59  1  0.18471872  0.87885547  0.23874624  1
  C  C60  1  0.03199005  0.99567926  0.45065750  1
  H  H61  1  0.00254541  0.87865227  0.35178051  1
  C  C62  1  0.17573490  0.78387989  0.04711587  1
  C  C63  1  0.04034790  0.86833338  0.40919229  1
  C  C64  1  0.16220576  0.98813310  0.19970443  1
  C  C65  1  0.06688597  0.79773959  0.40550407  1
  C  C66  1  0.11174243  0.78875716  0.49284893  1
  O  O67  1  0.13148605  0.66163003  0.46552371  1
  C  C68  1  0.00241764  0.60128399  0.11423205  1
  O  O69  1  0.05937708  0.99575410  0.14204802  1
  H  H70  1  0.09236309  0.51731789  0.33061950  1
  H  H71  1  0.16632339  0.91588395  0.84326895  1
  O  O72  1  0.20377839  0.60959224  0.93647305  1
  O  O73  1  0.00478524  0.50717743  0.61446799  1
  C  C74  1  0.10911354  0.91751604  0.54875388  1
  H  H75  1  0.16967562  0.83084778  0.61521176  1
  C  C76  1  0.18946671  0.87598897  0.90028341  1
  O  O77  1  0.08277207  0.91034792  0.87297366  1
  C  C78  1  0.13129225  0.84459818  0.55571478  1
  O  O79  1  0.13363298  0.96720627  0.60153566  1
  C  C80  1  0.09143527  0.85865094  0.94267562  1
  O  O81  1  0.02667100  0.53273841  0.78506908  1
  C  C82  1  0.15277042  0.83564438  0.96527805  1
  H  H83  1  0.21240397  0.52944456  0.80733988  1
  O  O84  1  0.04819294  0.82780691  0.98528044  1
  O  O85  1  0.19523195  0.72400198  0.56035233  1
  C  C86  1  0.14644770  0.72067649  0.50847795  1
  C  C87  1  0.29564376  0.01259444  0.17644385  1
  C  C88  1  0.44284644  0.24872948  0.12053948  1
  O  O89  1  0.35411308  0.04069118  0.02981252  1
  C  C90  1  0.41342783  0.12023457  0.39494040  1
  H  H91  1  0.27882857  0.47500875  0.38155895  1
  O  O92  1  0.37963528  0.17453913  0.41565985  1
  O  O93  1  0.43266570  0.11034819  0.29708879  1
  C  C94  1  0.25630919  0.45014615  0.30592160  1
  Zn  Zn95  1  0.35592507  0.24237405  0.28236602  1
  C  C96  1  0.26717853  0.37353221  0.29252663  1
  O  O97  1  0.29676621  0.33392477  0.35960119  1
  O  O98  1  0.45206767  0.28456274  0.20567740  1
  O  O99  1  0.27375694  0.22600744  0.20757363  1
  C  C100  1  0.35550177  0.01610462  0.12576736  1
  H  H101  1  0.27282058  0.10517324  0.07463490  1
  Zn  Zn102  1  0.47850146  0.02153836  0.24483548  1
  O  O103  1  0.39336141  0.22337071  0.10735525  1
  C  C104  1  0.42862816  0.07638794  0.49607096  1
  C  C105  1  0.47736924  0.02575052  0.49521337  1
  C  C106  1  0.49379382  0.23309944  0.03390264  1
  C  C107  1  0.25455786  0.06294567  0.12958694  1
  H  H108  1  0.45755722  0.11963066  0.00781372  1
  C  C109  1  0.36863498  0.38757040  0.68826481  1
  C  C110  1  0.40702414  0.04763928  0.69186229  1
  O  O111  1  0.34067143  0.34328841  0.62717813  1
  C  C112  1  0.34270479  0.44850763  0.74705387  1
  O  O113  1  0.42286743  0.37779966  0.71185655  1
  C  C114  1  0.39547596  0.08510842  0.58845040  1
  Zn  Zn115  1  0.46914533  0.25601228  0.87006516  1
  C  C116  1  0.37767186  0.48853725  0.81770576  1
  C  C117  1  0.27816791  0.46071687  0.73196976  1
  O  O118  1  0.37346072  0.05925582  0.77470424  1
  H  H119  1  0.35733643  0.12173553  0.58240289  1
  H  H120  1  0.42333440  0.47015793  0.82635311  1
  C  C121  1  0.46103821  0.00401847  0.69289130  1
  Zn  Zn122  1  0.26245751  0.33958352  0.53759449  1
  O  O123  1  0.48181855  0.49502284  0.51154281  1
  C  C124  1  0.48044966  0.16501274  0.96473434  1
  Zn  Zn125  1  0.37359629  0.66546678  0.06266097  1
  O  O126  1  0.48243420  0.90868042  0.24011900  1
  O  O127  1  0.36353900  0.78601025  0.08349081  1
  Zn  Zn128  1  0.39393462  0.86604984  0.22991969  1
  C  C129  1  0.38411424  0.74611775  0.41148515  1
  C  C130  1  0.27544384  0.94579059  0.23326479  1
  O  O131  1  0.43158538  0.64108206  0.19662045  1
  O  O132  1  0.31240587  0.91789013  0.29832205  1
  C  C133  1  0.48470767  0.62610413  0.17121379  1
  H  H134  1  0.44061884  0.57583135  0.34459209  1
  C  C135  1  0.48826879  0.56578532  0.34533762  1
  O  O136  1  0.25948229  0.58149566  0.35665933  1
  O  O137  1  0.41722717  0.78259207  0.35076387  1
  O  O138  1  0.32911523  0.73934769  0.38767025  1
  H  H139  1  0.25863551  0.75145092  0.11605412  1
  Zn  Zn140  1  0.27072776  0.66921456  0.46828835  1
  H  H141  1  0.49607673  0.76738805  0.43887706  1
  O  O142  1  0.28438372  0.64266449  0.01772608  1
  C  C143  1  0.34189045  0.82001972  0.00192725  1
  O  O144  1  0.40061859  0.97679804  0.15477960  1
  O  O145  1  0.45490017  0.95782914  0.89308739  1
  C  C146  1  0.37987492  0.70286459  0.61116939  1
  O  O147  1  0.33802226  0.65854440  0.59206616  1
  Zn  Zn148  1  0.46042396  0.64224712  0.60299462  1
  C  C149  1  0.35899361  0.55192675  0.88093178  1
  O  O150  1  0.28810266  0.90711328  0.84069247  1
  O  O151  1  0.37649598  0.85077876  0.92776510  1
  C  C152  1  0.29496019  0.55953790  0.87020761  1
  C  C153  1  0.48310062  0.71144539  0.72822413  1
  O  O154  1  0.39146348  0.59247589  0.93757346  1
  H  H155  1  0.39612163  0.71955165  0.80005684  1
  C  C156  1  0.42053179  0.70510373  0.72465950  1
  C  C157  1  0.48262603  0.96167236  0.78844567  1
  Zn  Zn158  1  0.48167052  0.85904064  0.96326344  1
  Zn  Zn159  1  0.36126853  0.96819797  0.88928343  1
  O  O160  1  0.48384331  0.75562604  0.90804068  1
  C  C161  1  0.47993059  0.73587374  0.51112675  1
  C  C162  1  0.27768235  0.82453168  0.98896611  1
  C  C163  1  0.49417036  0.99383881  0.60184832  1
  C  C164  1  0.41815187  0.71738371  0.50717016  1
  C  C165  1  0.25283863  0.87223593  0.90312449  1
  C  C166  1  0.25880806  0.51858051  0.80430281  1
  C  C167  1  0.25882946  0.60684636  0.94180372  1
  O  O168  1  0.53898922  0.05020943  0.09665892  1
  C  C169  1  0.64746423  0.08255910  0.12227404  1
  O  O170  1  0.61002259  0.15123064  0.26643695  1
  C  C171  1  0.65374949  0.12309756  0.22940509  1
  C  C172  1  0.72394244  0.32107059  0.38624639  1
  C  C173  1  0.70154329  0.04667174  0.08151583  1
  Zn  Zn174  1  0.67115366  0.39389970  0.05560985  1
  Zn  Zn175  1  0.73113294  0.19733395  0.11988475  1
  Zn  Zn176  1  0.56392177  0.25507904  0.22742007  1
  O  O177  1  0.63721456  0.32282542  0.26931201  1
  C  C178  1  0.62741808  0.30786047  0.46624712  1
  C  C179  1  0.72121158  0.14250544  0.26657141  1
  O  O180  1  0.51089848  0.02006143  0.41001879  1
  C  C181  1  0.66047175  0.31899357  0.36502929  1
  C  C182  1  0.56211734  0.30664349  0.46680885  1
  C  C183  1  0.59092244  0.05873530  0.08895033  1
  O  O184  1  0.53605235  0.30431964  0.37429220  1
  O  O185  1  0.54386229  0.25814299  0.04706724  1
  H  H186  1  0.72937416  0.15154020  0.35457083  1
  O  O187  1  0.53870923  0.31002828  0.55982424  1
  C  C188  1  0.72135871  0.31052122  0.58526260  1
  O  O189  1  0.53456632  0.41798072  0.81896538  1
  C  C190  1  0.61305368  0.48079475  0.52582973  1
  H  H191  1  0.59153501  0.32678843  0.88299219  1
  C  C192  1  0.73806831  0.43074045  0.93506912  1
  C  C193  1  0.62570636  0.43527798  0.91769754  1
  Zn  Zn194  1  0.64633603  0.05957072  0.94798824  1
  C  C195  1  0.56620257  0.46016590  0.87606506  1
  H  H196  1  0.63180850  0.29513542  0.63812867  1
  C  C197  1  0.63132104  0.35815485  0.91191799  1
  C  C198  1  0.65927999  0.30369283  0.56212422  1
  C  C199  1  0.50770378  0.14665633  0.85581172  1
  C  C200  1  0.67752930  0.47834465  0.93215415  1
  O  O201  1  0.52897723  0.11604968  0.78220573  1
  C  C202  1  0.68943718  0.30626026  0.93890224  1
  O  O203  1  0.74121021  0.31302756  0.68374748  1
  O  O204  1  0.58932129  0.47305510  0.61983177  1
  C  C205  1  0.74247698  0.35710943  0.95956563  1
  Zn  Zn206  1  0.50824713  0.41152145  0.63804936  1
  O  O207  1  0.68512386  0.24500592  0.98059859  1
  O  O208  1  0.66764063  0.46888163  0.51360569  1
  H  H209  1  0.65250793  0.51038532  0.33599640  1
  O  O210  1  0.51629249  0.82612417  0.12024831  1
  C  C211  1  0.73885336  0.77772324  0.05893768  1
  C  C212  1  0.58115781  0.56392168  0.24223500  1
  O  O213  1  0.70009734  0.96230280  0.41473979  1
  C  C214  1  0.51927661  0.58344536  0.25354841  1
  C  C215  1  0.58177350  0.87554248  0.24546423  1
  C  C216  1  0.52763354  0.86836738  0.19877341  1
  Zn  Zn217  1  0.66891316  0.84507195  0.24413748  1
  C  C218  1  0.60085081  0.91956571  0.33047723  1
  C  C219  1  0.60488143  0.52784559  0.33700186  1
  C  C220  1  0.66406126  0.92611429  0.37190726  1
  O  O221  1  0.61154168  0.58119337  0.15511317  1
  H  H222  1  0.56383350  0.94911193  0.37391848  1
  Zn  Zn223  1  0.71250087  0.58794928  0.13020006  1
  H  H224  1  0.70061776  0.98677607  0.08618955  1
  O  O225  1  0.66679370  0.68798364  0.03411640  1
  C  C226  1  0.57599035  0.50885843  0.43251907  1
  C  C227  1  0.51288792  0.52197512  0.43582191  1
  O  O228  1  0.73616916  0.51353814  0.27671910  1
  O  O229  1  0.50956600  0.65222874  0.08564062  1
  C  C230  1  0.68157656  0.75082130  0.01251821  1
  H  H231  1  0.53672833  0.96043672  0.60844070  1
  O  O232  1  0.70702417  0.68504476  0.71277640  1
  O  O233  1  0.65849320  0.79207045  0.94157788  1
  O  O234  1  0.52490131  0.92287712  0.78089623  1
  C  C235  1  0.51281674  0.72191508  0.83401536  1
  Zn  Zn236  1  0.64118370  0.76414565  0.77043329  1
  O  O237  1  0.56509438  0.69925136  0.85449143  1
  O  O238  1  0.57377542  0.72132365  0.63098035  1
  H  H239  1  0.73305911  0.86885327  0.95173740  1
  O  O240  1  0.67056380  0.53854372  0.97891482  1
  O  O241  1  0.69337523  0.84209439  0.66747293  1
  C  C242  1  0.51913008  0.73396016  0.62378230  1
  O  O243  1  0.55203806  0.52353571  0.88369500  1
  C  C244  1  0.73739381  0.82911154  0.60636931  1
  C  C245  1  0.74125362  0.68962748  0.63258605  1
  Zn  Zn246  1  0.74040589  0.52883360  0.57641687  1
  O  O247  1  0.74687086  0.64202787  0.56006656  1
  Zn  Zn248  1  0.58010524  0.60777726  0.98710467  1
  O  O249  1  0.84773490  0.04513877  0.26850919  1
  C  C250  1  0.82743020  0.11097740  0.26878396  1
  C  C251  1  0.76705585  0.08113914  0.09446948  1
  O  O252  1  0.99855614  0.00598258  0.36833818  1
  C  C253  1  0.77311861  0.12104821  0.20666250  1
  O  O254  1  0.84284840  0.15706112  0.34160948  1
  Zn  Zn255  1  0.90299889  0.23616845  0.30602559  1
  H  H256  1  0.75416366  0.32404801  0.31192923  1
  O  O257  1  0.95082481  0.07920808  0.09376382  1
  O  O258  1  0.84025226  0.31449027  0.37759787  1
  O  O259  1  0.95170960  0.31542928  0.22849915  1
  C  C260  1  0.82004722  0.31786628  0.47611000  1
  O  O261  1  0.80854066  0.07657970  0.02412584  1
  O  O262  1  0.80851634  0.29090037  0.05818011  1
  O  O263  1  0.99594300  0.19016085  0.31396351  1
  Zn  Zn264  1  0.88335621  0.01444926  0.07035091  1
  C  C265  1  0.75516182  0.31816189  0.48150731  1
  C  C266  1  0.99729884  0.34582677  0.27737288  1
  O  O267  1  0.99835723  0.41264298  0.29353291  1
  O  O268  1  0.86663078  0.45080125  0.74428814  1
  Zn  Zn269  1  0.94543873  0.19743816  0.89570166  1
  Zn  Zn270  1  0.83491058  0.33673014  0.72855016  1
  H  H271  1  0.78115053  0.46061211  0.92440196  1
  C  C272  1  0.91618967  0.16088213  0.73468730  1
  O  O273  1  0.88230346  0.18453249  0.66899971  1
  C  C274  1  0.98565097  0.09337852  0.87659460  1
  O  O275  1  0.84062828  0.31294845  0.89224962  1
  C  C276  1  0.80050735  0.31780384  0.96864593  1
  C  C277  1  0.95454910  0.10154095  0.76945218  1
  H  H278  1  0.96030281  0.05636226  0.70579152  1
  O  O279  1  0.85269034  0.32794731  0.56010282  1
  O  O280  1  0.88598812  0.00137999  0.63693543  1
  C  C281  1  0.99785143  0.11078323  0.99569266  1
  C  C282  1  0.75908119  0.84163943  0.01735851  1
  C  C283  1  0.77297621  0.73968306  0.14229157  1
  O  O284  1  0.98636638  0.57122901  0.36037247  1
  O  O285  1  0.93342525  0.91479007  0.13734652  1
  C  C286  1  0.89771778  0.58096500  0.10601533  1
  C  C287  1  0.88803816  0.54321874  0.32571432  1
  C  C288  1  0.84201959  0.55412810  0.14539795  1
  C  C289  1  0.83196035  0.77085747  0.16539025  1
  C  C290  1  0.94571744  0.56447321  0.28898328  1
  C  C291  1  0.91573909  0.85228159  0.14310539  1
  O  O292  1  0.94774527  0.80091548  0.17615577  1
  H  H293  1  0.86088305  0.74323753  0.22183997  1
  C  C294  1  0.83746846  0.53769881  0.26317887  1
  O  O295  1  0.79978952  0.54814580  0.07930019  1
  C  C296  1  0.85265606  0.83148232  0.12009976  1
  C  C297  1  0.94777947  0.58284320  0.16987607  1
  Zn  Zn298  1  0.86077404  0.97587502  0.40675051  1
  C  C299  1  0.81610698  0.87461358  0.04510302  1
  H  H300  1  0.87688583  0.53445468  0.41569853  1
  H  H301  1  0.90088934  0.59455778  0.01583678  1
  C  C302  1  0.78433627  0.51479621  0.32626581  1
  O  O303  1  0.78753169  0.50402893  0.43097719  1
  O  O304  1  0.99734488  0.62567715  0.01805574  1
  O  O305  1  0.75215233  0.68388281  0.18710587  1
  C  C306  1  0.77182223  0.76077770  0.60889073  1
  C  C307  1  0.86692889  0.63425346  0.81863149  1
  C  C308  1  0.87875537  0.95821702  0.56973534  1
  H  H309  1  0.76046086  0.94510750  0.56180135  1
  Zn  Zn310  1  0.95985044  0.60317410  0.81665509  1
  O  O311  1  0.91528853  0.75626719  0.88020568  1
  Zn  Zn312  1  0.82631410  0.82852490  0.69340224  1
  C  C313  1  0.90227894  0.69801395  0.85049104  1
  C  C314  1  0.86785155  0.56998299  0.79183289  1
  O  O315  1  0.83327788  0.93108980  0.99864324  1
  C  C316  1  0.84368254  0.89254816  0.54054951  1
  C  C317  1  0.78279536  0.89378303  0.57329607  1
  C  C318  1  0.82682152  0.75531070  0.55171896  1
  O  O319  1  0.78027173  0.50678653  0.73999296  1
  C  C320  1  0.83578604  0.50629472  0.75376178  1
  H  H321  1  0.83739466  0.70105583  0.51487211  1
  C  C322  1  0.87904096  0.81309456  0.53479793  1
  O  O323  1  0.93004905  0.81179188  0.55524362  1
