# generated using pymatgen
data_CuH4C8(N2O)2
_symmetry_space_group_name_H-M   'P 1'
_cell_length_a   18.01034365
_cell_length_b   26.15545461
_cell_length_c   7.92763132
_cell_angle_alpha   90.00000000
_cell_angle_beta   90.00000000
_cell_angle_gamma   90.00000000
_symmetry_Int_Tables_number   1
_chemical_formula_structural   CuH4C8(N2O)2
_chemical_formula_sum   'Cu16 H64 C128 N64 O32'
_cell_volume   3734.45918666
_cell_formula_units_Z   16
loop_
 _symmetry_equiv_pos_site_id
 _symmetry_equiv_pos_as_xyz
  1  'x, y, z'
loop_
 _atom_site_type_symbol
 _atom_site_label
 _atom_site_symmetry_multiplicity
 _atom_site_fract_x
 _atom_site_fract_y
 _atom_site_fract_z
 _atom_site_occupancy
  N  N0  1  0.25740534  0.04036882  0.21920271  1
  H  H1  1  0.08879968  0.14635650  0.33060811  1
  C  C2  1  0.26853308  0.13495831  0.47328025  1
  H  H3  1  0.45575190  0.15358954  0.29217170  1
  H  H4  1  0.21511941  0.12201934  0.41445150  1
  O  O5  1  0.42723657  0.06555359  0.27809848  1
  C  C6  1  0.47502513  0.05834978  0.39545729  1
  H  H7  1  0.27706619  0.20762770  0.34370418  1
  C  C8  1  0.11621221  0.17254317  0.41819231  1
  N  N9  1  0.28559407  0.10168380  0.15297506  1
  C  C10  1  0.13692872  0.22165515  0.36867200  1
  N  N11  1  0.26480872  0.01889455  0.44765375  1
  Cu  Cu12  1  0.08241656  0.04298914  0.12129784  1
  O  O13  1  0.48549544  0.01407135  0.45246767  1
  Cu  Cu14  1  0.40985647  0.03159757  0.07504481  1
  H  H15  1  0.12526560  0.23548126  0.23959026  1
  C  C16  1  0.30113813  0.18223748  0.44068223  1
  C  C17  1  0.24282901  0.01144034  0.08137809  1
  N  N18  1  0.04331876  0.00527484  0.31861555  1
  C  C19  1  0.00264608  0.23512703  0.12830329  1
  C  C20  1  0.39586818  0.24725865  0.47670921  1
  C  C21  1  0.48575747  0.21472578  0.03948423  1
  H  H22  1  0.42936210  0.23332861  0.05427995  1
  O  O23  1  0.48301504  0.06067483  0.93359564  1
  C  C24  1  0.40301692  0.16879413  0.64864301  1
  H  H25  1  0.40053539  0.09175019  0.75349492  1
  C  C26  1  0.17591217  0.18926363  0.69591041  1
  N  N27  1  0.26649172  0.01864377  0.72390787  1
  C  C28  1  0.13476727  0.15811897  0.58003564  1
  C  C29  1  0.37206302  0.12053556  0.66936974  1
  Cu  Cu30  1  0.04072845  0.02306708  0.57516952  1
  O  O31  1  0.13190759  0.08976914  0.77094400  1
  O  O32  1  0.07845825  0.07866137  0.52021362  1
  C  C33  1  0.11270548  0.10614687  0.62800592  1
  H  H34  1  0.45653542  0.18195302  0.70944236  1
  H  H35  1  0.19153624  0.17224457  0.81883198  1
  C  C36  1  0.27572656  0.04809402  0.58426751  1
  Cu  Cu37  1  0.12283622  0.01528458  0.82300905  1
  C  C38  1  0.02587424  0.22015111  0.96514237  1
  N  N39  1  0.25857640  0.04007539  0.94734113  1
  N  N40  1  0.28988740  0.10133277  0.99992304  1
  C  C41  1  0.30624131  0.10279200  0.58482616  1
  C  C42  1  0.36680705  0.19740988  0.52476642  1
  H  H43  1  0.42706743  0.14707132  0.96334246  1
  H  H44  1  0.05361898  0.24740585  0.87582030  1
  C  C45  1  0.19216973  0.23831715  0.64741523  1
  C  C46  1  0.00920517  0.16951431  0.91629001  1
  C  C47  1  0.48145088  0.16310069  0.99171667  1
  H  H48  1  0.02831003  0.15867042  0.79306439  1
  C  C49  1  0.18422308  0.30807896  0.39338956  1
  N  N50  1  0.22080327  0.37147927  0.17035028  1
  Cu  Cu51  1  0.35052164  0.34686613  0.34361102  1
  C  C52  1  0.16560965  0.47525592  0.48409341  1
  O  O53  1  0.35546102  0.41964097  0.39002828  1
  N  N54  1  0.22015511  0.30879062  0.24538970  1
  N  N55  1  0.17909528  0.39515373  0.26303225  1
  N  N56  1  0.15233740  0.35349886  0.42580264  1
  C  C57  1  0.01337846  0.28748351  0.18215507  1
  C  C58  1  0.43747536  0.49123382  0.43400216  1
  O  O59  1  0.36217276  0.27327953  0.36415116  1
  C  C60  1  0.01015251  0.47461019  0.17942449  1
  Cu  Cu61  1  0.05899976  0.38089940  0.07317690  1
  C  C62  1  0.41095263  0.43940185  0.46201024  1
  O  O63  1  0.06061343  0.45112130  0.09156392  1
  O  O64  1  0.05551084  0.31300398  0.08074116  1
  C  C65  1  0.17372585  0.25395564  0.48283422  1
  H  H66  1  0.20253943  0.44405226  0.44250490  1
  N  N67  1  0.42396929  0.34414406  0.02351708  1
  O  O68  1  0.44983093  0.26683274  0.55662725  1
  N  N69  1  0.32048261  0.32160675  0.83818194  1
  C  C70  1  0.09881647  0.46669017  0.57971406  1
  H  H71  1  0.21660858  0.26594126  0.74535129  1
  Cu  Cu72  1  0.44840336  0.33751189  0.56350292  1
  N  N73  1  0.36230628  0.37928485  0.81126503  1
  O  O74  1  0.45297284  0.41240352  0.55627567  1
  N  N75  1  0.09785604  0.36755795  0.62053445  1
  C  C76  1  0.07051947  0.41545532  0.65550444  1
  N  N77  1  0.35771525  0.30068655  0.95011210  1
  N  N78  1  0.03901688  0.32285652  0.70786314  1
  C  C79  1  0.48183695  0.42951086  0.93506129  1
  C  C80  1  0.41935838  0.38426224  0.92217229  1
  C  C81  1  0.46834551  0.47853413  0.90849312  1
  N  N82  1  0.00706693  0.41096444  0.72901730  1
  C  C83  1  0.39600134  0.52242887  0.31919711  1
  C  C84  1  0.03534566  0.55473360  0.03774570  1
  H  H85  1  0.35623291  0.50367549  0.23855589  1
  O  O86  1  0.08606601  0.64729131  0.41748877  1
  H  H87  1  0.38991588  0.59997862  0.21303490  1
  N  N88  1  0.46276229  0.68171261  0.24500113  1
  C  C89  1  0.41750456  0.57363639  0.30071867  1
  O  O90  1  0.17788731  0.62725406  0.24428195  1
  C  C91  1  0.17213813  0.52217020  0.39596580  1
  N  N92  1  0.40378139  0.66988025  0.06658259  1
  Cu  Cu93  1  0.19358056  0.69283583  0.15644250  1
  H  H94  1  0.21601288  0.53105431  0.30612339  1
  C  C95  1  0.13256820  0.61492581  0.35780605  1
  C  C96  1  0.12656380  0.56450370  0.43835504  1
  Cu  Cu97  1  0.10262506  0.72075204  0.38337739  1
  C  C98  1  0.02838300  0.60820102  0.03319499  1
  C  C99  1  0.48300921  0.59448453  0.37626229  1
  C  C100  1  0.05638387  0.50974597  0.63129566  1
  N  N101  1  0.16301214  0.71819804  0.60352060  1
  N  N102  1  0.33141002  0.62146255  0.86269537  1
  H  H103  1  0.36230192  0.70858965  0.52763875  1
  N  N104  1  0.23663646  0.71576726  0.83069588  1
  C  C105  1  0.22570526  0.73387160  0.66985284  1
  N  N106  1  0.32312409  0.68712456  0.86589939  1
  N  N107  1  0.12186263  0.67946330  0.75289460  1
  N  N108  1  0.16269184  0.67616518  0.87490234  1
  C  C109  1  0.36691271  0.70714312  0.98500484  1
  H  H110  1  0.46853707  0.56338426  0.87765531  1
  H  H111  1  0.05410468  0.63048217  0.92950850  1
  N  N112  1  0.37880088  0.61175318  0.96786652  1
  H  H113  1  0.07359900  0.53495217  0.94451479  1
  C  C114  1  0.49649585  0.52575606  0.91295397  1
  H  H115  1  0.00263145  0.50108697  0.70077312  1
  C  C116  1  0.35125037  0.74973672  0.53303797  1
  H  H117  1  0.04056696  0.59343802  0.60457855  1
  C  C118  1  0.06861341  0.55829929  0.55908830  1
  C  C119  1  0.16691364  0.79903420  0.20502194  1
  C  C120  1  0.35115369  0.84041428  0.20505122  1
  C  C121  1  0.16484419  0.94026349  0.22005844  1
  C  C122  1  0.39020332  0.92715894  0.11547161  1
  O  O123  1  0.13123702  0.78680389  0.34202227  1
  C  C124  1  0.17930375  0.85139984  0.15549247  1
  O  O125  1  0.36945256  0.93793371  0.26513370  1
  H  H126  1  0.14210595  0.97292521  0.29081816  1
  Cu  Cu127  1  0.41407972  0.96787256  0.43946635  1
  C  C128  1  0.21402803  0.95494384  0.08801058  1
  H  H129  1  0.31353829  0.76246173  0.25529662  1
  C  C130  1  0.14655326  0.88976352  0.25964488  1
  C  C131  1  0.38430813  0.87224577  0.08673125  1
  C  C132  1  0.34452657  0.78845691  0.17217536  1
  H  H133  1  0.10612557  0.87966656  0.35892188  1
  H  H134  1  0.32719306  0.85679587  0.32092168  1
  O  O135  1  0.41483394  0.96087874  0.02013812  1
  O  O136  1  0.19392261  0.76326716  0.11771899  1
  C  C137  1  0.36819851  0.76504187  0.02117456  1
  C  C138  1  0.22143092  0.86426218  0.00783828  1
  H  H139  1  0.46595104  0.77071152  0.47137740  1
  H  H140  1  0.43872233  0.87564702  0.83845370  1
  C  C141  1  0.26760535  0.82326177  0.60721644  1
  H  H142  1  0.20908023  0.83853602  0.63297310  1
  O  O143  1  0.08971666  0.94795442  0.85495155  1
  H  H144  1  0.09399661  0.85725005  0.90375512  1
  C  C145  1  0.46218794  0.87104976  0.51487102  1
  H  H146  1  0.32029190  0.89772352  0.61729618  1
  H  H147  1  0.41326953  0.78249901  0.78443048  1
  C  C148  1  0.40197776  0.79987907  0.90459722  1
  C  C149  1  0.04860223  0.79049158  0.76318334  1
  C  C150  1  0.41408223  0.85192689  0.93349061  1
  C  C151  1  0.04270353  0.93731758  0.74121432  1
  H  H152  1  0.23588197  0.83082104  0.92425534  1
  C  C153  1  0.32760614  0.85733226  0.58716540  1
  C  C154  1  0.06185985  0.84232445  0.79749365  1
  H  H155  1  0.27496298  0.92923562  0.87317393  1
  C  C156  1  0.28091927  0.76960061  0.58445931  1
  C  C157  1  0.02454064  0.88360970  0.70780746  1
  H  H158  1  0.08081057  0.75943096  0.82430250  1
  O  O159  1  0.00312605  0.96992586  0.66299964  1
  N  N160  1  0.23229242  0.96123039  0.66797894  1
  C  C161  1  0.40924064  0.78398308  0.50753830  1
  C  C162  1  0.39714242  0.83777843  0.53325645  1
  O  O163  1  0.45565378  0.91779319  0.55951703  1
  C  C164  1  0.24217641  0.91495860  0.98021405  1
  N  N165  1  0.23236463  0.96073209  0.51271849  1
  H  H166  1  0.94130548  0.21499577  0.35719689  1
  H  H167  1  0.79967425  0.14887078  0.40026208  1
  H  H168  1  0.76656091  0.07943811  0.19707957  1
  C  C169  1  0.96083960  0.20263966  0.23186110  1
  C  C170  1  0.75971863  0.07152822  0.33039517  1
  C  C171  1  0.72530685  0.02562265  0.39328015  1
  C  C172  1  0.55397556  0.24031646  0.06890807  1
  H  H173  1  0.91505260  0.12795997  0.26517169  1
  C  C174  1  0.94992822  0.15254214  0.18183992  1
  C  C175  1  0.62214056  0.21295185  0.04852915  1
  C  C176  1  0.54664285  0.19196982  0.39791848  1
  C  C177  1  0.97426183  0.13342655  0.02419392  1
  C  C178  1  0.77929259  0.11110756  0.44117776  1
  H  H179  1  0.53585365  0.22836813  0.33204397  1
  C  C180  1  0.68008795  0.22312312  0.47055967  1
  H  H181  1  0.67750043  0.22867437  0.09236270  1
  C  C182  1  0.51853647  0.10272139  0.45673684  1
  C  C183  1  0.61432197  0.18631859  0.49338627  1
  N  N184  1  0.99249884  0.03976894  0.00607837  1
  N  N185  1  0.81709806  0.17989254  0.03474275  1
  C  C186  1  0.50345493  0.14983910  0.37579542  1
  H  H187  1  0.67418186  0.14315141  0.02596824  1
  C  C188  1  0.61841690  0.16213303  0.01591243  1
  C  C189  1  0.54576566  0.08161919  0.95102888  1
  C  C190  1  0.76853472  0.10052992  0.61785722  1
  O  O191  1  0.60747806  0.05690841  0.96188436  1
  C  C192  1  0.78470238  0.13787524  0.76022062  1
  C  C193  1  0.74232615  0.05291698  0.67727345  1
  C  C194  1  0.55009623  0.13564617  0.98169613  1
  C  C195  1  0.72500053  0.01387747  0.56756962  1
  H  H196  1  0.85694526  0.03947315  0.88999747  1
  N  N197  1  0.76461174  0.18730824  0.76283535  1
  H  H198  1  0.73698564  0.04425263  0.81771292  1
  N  N199  1  0.87555869  0.07287611  0.93626711  1
  H  H200  1  0.66581129  0.14123706  0.68742492  1
  H  H201  1  0.58293919  0.06389852  0.64894011  1
  N  N202  1  0.78965880  0.21474994  0.95543180  1
  N  N203  1  0.81360337  0.12419874  0.91140629  1
  C  C204  1  0.94731913  0.07871106  0.98237759  1
  C  C205  1  0.62247651  0.14135283  0.59025992  1
  N  N206  1  0.74021183  0.22494194  0.56570852  1
  C  C207  1  0.57626806  0.09882228  0.57667549  1
  N  N208  1  0.59320047  0.35656093  0.36609006  1
  N  N209  1  0.77033232  0.28712356  0.35700103  1
  C  C210  1  0.55801805  0.29024136  0.16328961  1
  N  N211  1  0.61423419  0.30087890  0.26544030  1
  H  H212  1  0.64219734  0.46190836  0.13592472  1
  C  C213  1  0.55676278  0.42668986  0.00406196  1
  C  C214  1  0.59379580  0.47009502  0.05152664  1
  H  H215  1  0.57570547  0.38756153  0.02906954  1
  Cu  Cu216  1  0.96869534  0.37876604  0.30443005  1
  N  N217  1  0.68637713  0.25718264  0.34258544  1
  N  N218  1  0.79789466  0.27200675  0.48924940  1
  O  O219  1  0.96874705  0.44909695  0.27714024  1
  N  N220  1  0.53881407  0.37462947  0.29668974  1
  O  O221  1  0.98309618  0.30852673  0.30626354  1
  N  N222  1  0.51210284  0.32966511  0.15785867  1
  N  N223  1  0.99027204  0.34810009  0.77597498  1
  H  H224  1  0.53018267  0.48308726  0.60038766  1
  C  C225  1  0.75481972  0.71722323  0.23002465  1
  Cu  Cu226  1  0.72427496  0.60882822  0.21320482  1
  C  C227  1  0.56429808  0.51939606  0.01050401  1
  O  O228  1  0.76184571  0.67353252  0.29022959  1
  Cu  Cu229  1  0.64886399  0.66955438  0.04998969  1
  C  C230  1  0.50332670  0.64951379  0.34322146  1
  O  O231  1  0.59237830  0.60744171  0.02318689  1
  H  H232  1  0.89295664  0.62672488  0.32955886  1
  C  C233  1  0.94270560  0.55217644  0.27449507  1
  H  H234  1  0.91149442  0.53363491  0.37566204  1
  N  N235  1  0.56566361  0.73869622  0.32308149  1
  N  N236  1  0.95645219  0.72097102  0.27554746  1
  O  O237  1  0.71691161  0.72392137  0.09466810  1
  O  O238  1  0.67376440  0.55189919  0.12457156  1
  C  C239  1  0.93429659  0.60576000  0.25632223  1
  N  N240  1  0.50770676  0.74249310  0.24880390  1
  C  C241  1  0.61147623  0.56120585  0.05639121  1
  C  C242  1  0.99481418  0.52894833  0.16962911  1
  N  N243  1  0.56759711  0.67313395  0.38371211  1
  C  C244  1  0.96777396  0.69261493  0.14077847  1
  N  N245  1  0.96760466  0.72137678  0.00415820  1
  C  C246  1  0.97504518  0.63306420  0.13805219  1
  C  C247  1  0.52682559  0.56130337  0.48217099  1
  N  N248  1  0.91471724  0.63957371  0.56651838  1
  N  N249  1  0.95412961  0.69608678  0.50152058  1
  N  N250  1  0.91759338  0.63862609  0.71906364  1
  C  C251  1  0.64317676  0.68390121  0.68746019  1
  N  N252  1  0.63700205  0.65639271  0.54537231  1
  H  H253  1  0.81108264  0.70927971  0.53306580  1
  C  C254  1  0.61363010  0.73793708  0.74385210  1
  N  N255  1  0.68639912  0.65914269  0.80174321  1
  N  N256  1  0.70246512  0.59903493  0.72107728  1
  N  N257  1  0.68081649  0.59863553  0.57466556  1
  H  H258  1  0.57612352  0.57265978  0.54582199  1
  C  C259  1  0.96883598  0.72386172  0.64184714  1
  N  N260  1  0.96176859  0.69505547  0.77981106  1
  C  C261  1  0.50331951  0.51074948  0.51106845  1
  H  H262  1  0.52280590  0.71300487  0.91884853  1
  C  C263  1  0.55971668  0.74600173  0.86992468  1
  C  C264  1  0.77949029  0.84954705  0.39158901  1
  H  H265  1  0.74287346  0.81803591  0.15008814  1
  Cu  Cu266  1  0.59463124  0.89915594  0.34235733  1
  H  H267  1  0.77317835  0.88985638  0.34912252  1
  N  N268  1  0.95690469  0.78539665  0.06357644  1
  N  N269  1  0.95068255  0.78749559  0.21341503  1
  C  C270  1  0.76129813  0.80959919  0.28204850  1
  O  O271  1  0.67283517  0.94147710  0.33509711  1
  C  C272  1  0.69460079  0.98515537  0.28489733  1
  O  O273  1  0.70173627  0.99408870  0.13112662  1
  O  O274  1  0.56525320  0.88985193  0.11163066  1
  H  H275  1  0.51864400  0.80642093  0.04845151  1
  Cu  Cu276  1  0.98354357  0.97055723  0.04599164  1
  O  O277  1  0.52333512  0.85616134  0.45625385  1
  H  H278  1  0.91412291  0.80940985  0.45424900  1
  N  N279  1  0.99444086  0.97592751  0.27780105  1
  C  C280  1  0.77374080  0.76086537  0.33728765  1
  O  O281  1  0.63795890  0.91977888  0.91234161  1
  N  N282  1  0.85534127  0.96266138  0.85779578  1
  C  C283  1  0.65230446  0.82612960  0.74828187  1
  H  H284  1  0.83176403  0.78063704  0.75168922  1
  C  C285  1  0.80264587  0.83997315  0.55810575  1
  N  N286  1  0.83243886  0.93351635  0.67453775  1
  C  C287  1  0.81521074  0.78929763  0.61580466  1
  H  H288  1  0.68218033  0.85859805  0.70023575  1
  C  C289  1  0.95494232  0.81919676  0.54982994  1
  N  N290  1  0.81616577  0.87691912  0.86697952  1
  Cu  Cu291  1  0.62758614  0.98565749  0.94969399  1
  C  C292  1  0.81963240  0.88283756  0.69763017  1
  C  C293  1  0.60658060  0.83412515  0.88890740  1
  C  C294  1  0.64920603  0.77895331  0.65973896  1
  N  N295  1  0.84557688  0.93087332  0.97007396  1
  C  C296  1  0.60059347  0.88542587  0.97127896  1
  C  C297  1  0.55855359  0.79503022  0.94262741  1
  H  H298  1  0.67989100  0.77317927  0.54017169  1
  C  C299  1  0.97753617  0.86932052  0.57919619  1
  H  H300  1  0.95360929  0.90059124  0.50001077  1
  H  H301  1  0.70502989  0.97552650  0.61378608  1
  C  C302  1  0.99334118  0.77955100  0.63751315  1
  C  C303  1  0.80248478  0.75002337  0.50090661  1
