# generated using pymatgen
data_CuHC4O3
_symmetry_space_group_name_H-M   'P 1'
_cell_length_a   28.37547276
_cell_length_b   18.93693470
_cell_length_c   13.28948250
_cell_angle_alpha   90.00000000
_cell_angle_beta   90.00000000
_cell_angle_gamma   90.00000000
_symmetry_Int_Tables_number   1
_chemical_formula_structural   CuHC4O3
_chemical_formula_sum   'Cu36 H36 C144 O108'
_cell_volume   7141.02999367
_cell_formula_units_Z   36
loop_
 _symmetry_equiv_pos_site_id
 _symmetry_equiv_pos_as_xyz
  1  'x, y, z'
loop_
 _atom_site_type_symbol
 _atom_site_label
 _atom_site_symmetry_multiplicity
 _atom_site_fract_x
 _atom_site_fract_y
 _atom_site_fract_z
 _atom_site_occupancy
  O  O0  1  0.03265331  0.31453788  0.05002063  1
  O  O1  1  0.13565521  0.15211511  0.27764808  1
  C  C2  1  0.05254866  0.39875811  0.18149965  1
  C  C3  1  0.06139762  0.35738505  0.08909094  1
  O  O4  1  0.21752185  0.46557976  0.06627019  1
  C  C5  1  0.13562831  0.31738261  0.46134626  1
  C  C6  1  0.15365802  0.09203299  0.25571139  1
  C  C7  1  0.15882387  0.04228071  0.33825646  1
  Cu  Cu8  1  0.22516483  0.48755255  0.20375048  1
  C  C9  1  0.14314185  0.06452630  0.43254789  1
  C  C10  1  0.08433798  0.44360994  0.22258362  1
  C  C11  1  0.14056290  0.42053311  0.08517165  1
  O  O12  1  0.13125151  0.27664866  0.38862088  1
  H  H13  1  0.12091284  0.11092296  0.42769695  1
  O  O14  1  0.22040811  0.29338664  0.35798845  1
  O  O15  1  0.17172853  0.08056354  0.17038722  1
  C  C16  1  0.10545504  0.37762808  0.04615407  1
  Cu  Cu17  1  0.04783950  0.37287793  0.42582855  1
  Cu  Cu18  1  0.17693244  0.22600267  0.31919951  1
  C  C19  1  0.12982709  0.45646951  0.17904959  1
  O  O20  1  0.00685440  0.41036210  0.32411742  1
  C  C21  1  0.18505406  0.42827534  0.03291979  1
  C  C22  1  0.00775375  0.38637463  0.23242740  1
  H  H23  1  0.07469229  0.46868709  0.29625174  1
  C  C24  1  0.22472353  0.32642126  0.44261520  1
  O  O25  1  0.01576943  0.10350930  0.36776390  1
  Cu  Cu26  1  0.22462017  0.02385645  0.15091110  1
  C  C27  1  0.18174726  0.34412908  0.49675006  1
  Cu  Cu28  1  0.02689178  0.01264162  0.41821250  1
  C  C29  1  0.00467379  0.02360402  0.03000531  1
  O  O30  1  0.16096605  0.49888987  0.21374735  1
  O  O31  1  0.04891316  0.03360178  0.04759045  1
  Cu  Cu32  1  0.15646799  0.44396780  0.84902159  1
  H  H33  1  0.15009998  0.39598029  0.62413996  1
  C  C34  1  0.04941516  0.46372820  0.86525301  1
  O  O35  1  0.13483698  0.04751698  0.61237917  1
  C  C36  1  0.22417188  0.41045462  0.62926129  1
  H  H37  1  0.11255123  0.35324281  0.96967208  1
  O  O38  1  0.04458232  0.38891931  0.73047336  1
  C  C39  1  0.18298148  0.38512185  0.58099748  1
  O  O40  1  0.22315668  0.44776792  0.71121227  1
  Cu  Cu41  1  0.02419860  0.40023183  0.59774530  1
  O  O42  1  0.18697229  0.39836361  0.94456355  1
  C  C43  1  0.06983828  0.43249607  0.78005613  1
  O  O44  1  0.11345591  0.44038567  0.75122068  1
  C  C45  1  0.00204683  0.45115497  0.89299423  1
  C  C46  1  0.14916411  0.02944284  0.52641174  1
  Cu  Cu47  1  0.16041953  0.01873215  0.72744517  1
  O  O48  1  0.09871551  0.34288734  0.50311033  1
  O  O49  1  0.14698264  0.72361592  0.27814260  1
  C  C50  1  0.07095598  0.87637473  0.31185981  1
  C  C51  1  0.04748147  0.92868362  0.24895341  1
  C  C52  1  0.10321740  0.83492199  0.46932603  1
  O  O53  1  0.11879806  0.87461375  0.05082374  1
  Cu  Cu54  1  0.20549592  0.68570066  0.31357563  1
  C  C55  1  0.09627176  0.82686135  0.26147305  1
  O  O56  1  0.18501099  0.68746514  0.45051047  1
  C  C57  1  0.18605350  0.80316984  0.09663923  1
  C  C58  1  0.12479374  0.77757928  0.31307821  1
  O  O59  1  0.22702127  0.67887277  0.17928777  1
  H  H60  1  0.09124268  0.82541808  0.17376303  1
  H  H61  1  0.16847757  0.77262129  0.15593132  1
  C  C62  1  0.13005221  0.78508397  0.42156010  1
  C  C63  1  0.07043185  0.88117241  0.42253863  1
  O  O64  1  0.04758577  0.92107861  0.15416296  1
  O  O65  1  0.04416647  0.92603570  0.46507828  1
  O  O66  1  0.02541712  0.97946565  0.29098078  1
  H  H67  1  0.20606894  0.88877570  0.41862254  1
  O  O68  1  0.00927412  0.58204301  0.20593938  1
  C  C69  1  0.23161800  0.78379943  0.07867042  1
  O  O70  1  0.19510592  0.95613741  0.23405257  1
  H  H71  1  0.07021154  0.56423656  0.07996557  1
  C  C72  1  0.16233664  0.85967672  0.04768213  1
  C  C73  1  0.18949576  0.94016470  0.41524530  1
  C  C74  1  0.18262745  0.97481087  0.32107697  1
  Cu  Cu75  1  0.08778800  0.95536470  0.05771773  1
  C  C76  1  0.00723347  0.51556501  0.04488509  1
  C  C77  1  0.16117735  0.73901002  0.47836236  1
  C  C78  1  0.24950464  0.72029725  0.12397824  1
  O  O79  1  0.23804876  0.50894522  0.33347185  1
  C  C80  1  0.05305622  0.53021890  0.02228041  1
  H  H81  1  0.24305396  0.59512585  0.49438996  1
  C  C82  1  0.23401701  0.88483517  0.96286699  1
  O  O83  1  0.17265252  0.92690991  0.67915926  1
  O  O84  1  0.12686024  0.98544301  0.95054781  1
  C  C85  1  0.18864496  0.91838712  0.59268429  1
  C  C86  1  0.16755553  0.96622479  0.92650475  1
  O  O87  1  0.21348190  0.86333650  0.57360663  1
  O  O88  1  0.15815797  0.75526493  0.57265852  1
  O  O89  1  0.18907567  0.99617661  0.85121791  1
  O  O90  1  0.19519144  0.72825316  0.82353577  1
  Cu  Cu91  1  0.21329194  0.77722080  0.63614212  1
  H  H92  1  0.10929410  0.83103891  0.55120402  1
  C  C93  1  0.17499111  0.96468884  0.50842523  1
  C  C94  1  0.18735428  0.90552361  0.97679391  1
  C  C95  1  0.07768354  0.51001733  0.93256434  1
  O  O96  1  0.11922145  0.51876746  0.90951307  1
  C  C97  1  0.23504825  0.74170077  0.80938112  1
  O  O98  1  0.43556640  0.42635404  0.19556854  1
  C  C99  1  0.47809415  0.44320612  0.17901757  1
  H  H100  1  0.29856486  0.32711434  0.46226453  1
  O  O101  1  0.29153780  0.46337756  0.18728176  1
  Cu  Cu102  1  0.39196454  0.45013903  0.08300891  1
  O  O103  1  0.42794372  0.38357604  0.00243004  1
  C  C104  1  0.26623700  0.34596586  0.49481435  1
  H  H105  1  0.48966666  0.49630663  0.32111448  1
  H  H106  1  0.43361185  0.33531297  0.02611269  1
  C  C107  1  0.26758830  0.38867474  0.58182395  1
  C  C108  1  0.31477227  0.40647306  0.61829830  1
  O  O109  1  0.32029107  0.44222884  0.71074042  1
  O  O110  1  0.34960615  0.38980969  0.57444475  1
  C  C111  1  0.31356251  0.00298445  0.94472270  1
  C  C112  1  0.48251559  0.40371291  0.98932813  1
  H  H113  1  0.36750845  0.04997304  0.83915155  1
  O  O114  1  0.31490007  0.02838756  0.76066492  1
  C  C115  1  0.33203117  0.02346548  0.84428795  1
  C  C116  1  0.37413688  0.61904540  0.02026609  1
  O  O117  1  0.28176449  0.99246060  0.11985092  1
  O  O118  1  0.41263281  0.67652162  0.16065930  1
  O  O119  1  0.47602897  0.72584522  0.37491706  1
  C  C120  1  0.41423439  0.64319726  0.07667272  1
  Cu  Cu121  1  0.45995530  0.73794870  0.19561252  1
  H  H122  1  0.33991451  0.62339569  0.06013634  1
  C  C123  1  0.33960994  0.67068814  0.36978358  1
  O  O124  1  0.42537292  0.82331164  0.20374707  1
  C  C125  1  0.41375746  0.85732748  0.12603002  1
  H  H126  1  0.37696941  0.61545646  0.24997441  1
  C  C127  1  0.31239753  0.56152283  0.28847590  1
  O  O128  1  0.37166466  0.86238731  0.09331357  1
  Cu  Cu129  1  0.32964602  0.78385921  0.09846541  1
  C  C130  1  0.30348003  0.65704878  0.44204696  1
  O  O131  1  0.29204772  0.70372856  0.09511008  1
  C  C132  1  0.45627235  0.62556641  0.02306774  1
  O  O133  1  0.43958128  0.81335641  0.44442214  1
  C  C134  1  0.45026239  0.89346610  0.06919776  1
  C  C135  1  0.27082662  0.60223575  0.43460088  1
  O  O136  1  0.36677766  0.72564941  0.37211733  1
  C  C137  1  0.27099825  0.55495136  0.35371540  1
  C  C138  1  0.34571180  0.61398408  0.29860547  1
  C  C139  1  0.47681430  0.77889795  0.43026338  1
  C  C140  1  0.49503184  0.89784261  0.10834430  1
  C  C141  1  0.32204004  0.50766315  0.21426605  1
  Cu  Cu142  1  0.37614397  0.78276280  0.48516111  1
  O  O143  1  0.36071677  0.51391367  0.16417264  1
  C  C144  1  0.25931316  0.82889126  0.00747927  1
  C  C145  1  0.29923529  0.99274827  0.02872017  1
  C  C146  1  0.41816496  0.54523251  0.38715829  1
  O  O147  1  0.44094259  0.55040921  0.44911415  1
  Cu  Cu148  1  0.29660184  0.63137376  0.69695445  1
  C  C149  1  0.37183204  0.78904153  0.74898826  1
  O  O150  1  0.40274576  0.92154664  0.93085403  1
  O  O151  1  0.31525726  0.76342796  0.53151530  1
  O  O152  1  0.32261340  0.56947357  0.78453807  1
  C  C153  1  0.37501292  0.59240913  0.92329103  1
  O  O154  1  0.41083914  0.80054897  0.72945006  1
  O  O155  1  0.41389934  0.55961386  0.77637674  1
  C  C156  1  0.45735779  0.59502253  0.92980180  1
  Cu  Cu157  1  0.35099680  0.86894991  0.96394611  1
  C  C158  1  0.32804818  0.59207186  0.87535490  1
  H  H159  1  0.48193227  0.98026860  0.85054687  1
  C  C160  1  0.48374813  0.95622780  0.92715532  1
  C  C161  1  0.28204441  0.75512563  0.77938201  1
  Cu  Cu162  1  0.29668058  0.71297640  0.95627880  1
  O  O163  1  0.29319526  0.61393946  0.92476020  1
  C  C164  1  0.41803884  0.58072746  0.86680474  1
  O  O165  1  0.26912871  0.68519377  0.60143746  1
  C  C166  1  0.44269590  0.92564847  0.97166709  1
  C  C167  1  0.32394137  0.77056978  0.77293792  1
  C  C168  1  0.29763198  0.70322725  0.53246799  1
  H  H169  1  0.48115756  0.88772993  0.54427929  1
  H  H170  1  0.25127015  0.92146216  0.90953798  1
  Cu  Cu171  1  0.27599743  0.50846587  0.75547313  1
  Cu  Cu172  1  0.36471343  0.50333929  0.73825203  1
  H  H173  1  0.49210201  0.58809052  0.89943757  1
  O  O174  1  0.30068822  0.81262276  0.98760795  1
  H  H175  1  0.71859519  0.05887340  0.13894459  1
  C  C176  1  0.74504934  0.02580843  0.17368866  1
  C  C177  1  0.58195625  0.46672152  0.14760976  1
  C  C178  1  0.55018834  0.44159698  0.07121357  1
  O  O179  1  0.62566082  0.48029526  0.13833607  1
  C  C180  1  0.66422353  0.23485996  0.17570160  1
  O  O181  1  0.64886253  0.21892767  0.10689420  1
  C  C182  1  0.50244602  0.43015504  0.08377819  1
  C  C183  1  0.50674382  0.48000081  0.24868540  1
  C  C184  1  0.55469124  0.49462702  0.23233550  1
  H  H185  1  0.56816046  0.43083879  0.00137617  1
  O  O186  1  0.55558965  0.00222598  0.81380721  1
  O  O187  1  0.73843787  0.19178121  0.69648664  1
  O  O188  1  0.50250038  0.39524651  0.91415353  1
  O  O189  1  0.73045080  0.73195062  0.23766361  1
  Cu  Cu190  1  0.72325614  0.85390942  0.45197804  1
  O  O191  1  0.68360696  0.57704184  0.03998840  1
  O  O192  1  0.56607508  0.70140662  0.42864208  1
  O  O193  1  0.50187534  0.67158803  0.16524484  1
  C  C194  1  0.56315538  0.75990856  0.47603742  1
  O  O195  1  0.54784378  0.56254917  0.37461188  1
  O  O196  1  0.68431592  0.67688254  0.48323497  1
  Cu  Cu197  1  0.62532683  0.99057958  0.06142245  1
  Cu  Cu198  1  0.64886343  0.57396033  0.16719576  1
  O  O199  1  0.69748161  0.55725556  0.42743387  1
  O  O200  1  0.57641863  0.93239274  0.11111079  1
  Cu  Cu201  1  0.65255133  0.62116168  0.38579724  1
  Cu  Cu202  1  0.51397211  0.64619437  0.37849033  1
  O  O203  1  0.67099945  0.66489521  0.18746381  1
  C  C204  1  0.71466855  0.67887230  0.18759038  1
  O  O205  1  0.66577578  0.89666003  0.26747466  1
  O  O206  1  0.74199065  0.75478549  0.47560830  1
  O  O207  1  0.61732833  0.56635128  0.29387478  1
  C  C208  1  0.57462617  0.54035884  0.30650674  1
  O  O209  1  0.65141240  0.99854890  0.18946100  1
  C  C210  1  0.53555781  0.93153868  0.06908982  1
  C  C211  1  0.73042871  0.96651620  0.22924499  1
  C  C212  1  0.68033397  0.95438088  0.22811122  1
  Cu  Cu213  1  0.69802791  0.81703435  0.26898217  1
  C  C214  1  0.72644950  0.59774416  0.04165320  1
  C  C215  1  0.52101812  0.80196916  0.48086161  1
  C  C216  1  0.72711654  0.69254490  0.46900394  1
  C  C217  1  0.74125442  0.56736818  0.40751182  1
  O  O218  1  0.53887722  0.62639375  0.03581975  1
  C  C219  1  0.50262024  0.64242373  0.07274604  1
  H  H220  1  0.50256013  0.87446004  0.18096612  1
  C  C221  1  0.74625050  0.64179232  0.11993971  1
  C  C222  1  0.52842859  0.95656334  0.96629861  1
  O  O223  1  0.64718199  0.94704762  0.63663671  1
  O  O224  1  0.55412317  0.95726083  0.62454400  1
  C  C225  1  0.55728923  0.89696050  0.57742254  1
  O  O226  1  0.68181435  0.85439554  0.56219292  1
  C  C227  1  0.64633532  0.89002277  0.58665059  1
  C  C228  1  0.60170345  0.86423170  0.55623991  1
  C  C229  1  0.51725691  0.86343535  0.53668819  1
  Cu  Cu230  1  0.59997091  0.97717174  0.72166559  1
  H  H231  1  0.74945912  0.55198990  0.89775808  1
  C  C232  1  0.56604405  0.98641722  0.90557711  1
  O  O233  1  0.60825507  0.99262622  0.93222792  1
  H  H234  1  0.63934981  0.77098734  0.51059267  1
  C  C235  1  0.60383444  0.79814231  0.51186667  1
  O  O236  1  0.85181573  0.25149696  0.40177116  1
  O  O237  1  0.86335065  0.28912934  0.21433854  1
  C  C238  1  0.97579177  0.13482921  0.36976225  1
  C  C239  1  0.88913682  0.21275637  0.39345551  1
  C  C240  1  0.89948852  0.25055215  0.20681117  1
  Cu  Cu241  1  0.84116758  0.33618429  0.33048422  1
  Cu  Cu242  1  0.86656885  0.12420295  0.06195144  1
  O  O243  1  0.80651533  0.09918981  0.11294148  1
  H  H244  1  0.75857988  0.47062300  0.32880754  1
  C  C245  1  0.95714964  0.17804662  0.29281293  1
  C  C246  1  0.91488938  0.21437205  0.29671808  1
  O  O247  1  0.82958285  0.42342907  0.26481990  1
  O  O248  1  0.88843876  0.07752576  0.17524858  1
  H  H249  1  0.97414734  0.18703427  0.21983387  1
  Cu  Cu250  1  0.97814748  0.28248423  0.09056632  1
  O  O251  1  0.92467583  0.24252271  0.12854651  1
  C  C252  1  0.79165508  0.04531184  0.16106633  1
  C  C253  1  0.94486790  0.12145830  0.45667371  1
  C  C254  1  0.87362727  0.02586239  0.22535675  1
  O  O255  1  0.97504534  0.35192741  0.19535232  1
  C  C256  1  0.90424789  0.16277598  0.46307371  1
  O  O257  1  0.88970670  0.49815095  0.25969152  1
  O  O258  1  0.80821230  0.36740285  0.44891401  1
  Cu  Cu259  1  0.91409738  0.47657284  0.13217962  1
  C  C260  1  0.84772195  0.48472192  0.28689084  1
  C  C261  1  0.82632282  0.00544714  0.22466678  1
  C  C262  1  0.96385688  0.00787895  0.01498705  1
  C  C263  1  0.93120414  0.23331034  0.74489724  1
  Cu  Cu264  1  0.92216926  0.09171579  0.73458436  1
  O  O265  1  0.95394775  0.17534059  0.72866528  1
  C  C266  1  0.89328741  0.23199413  0.82068281  1
  C  C267  1  0.88120574  0.17128399  0.87875006  1
  H  H268  1  0.98112494  0.42211668  0.84150248  1
  C  C269  1  0.91128770  0.35755399  0.70600979  1
  H  H270  1  0.83757126  0.29165889  0.88668591  1
  C  C271  1  0.92668686  0.41712161  0.64440462  1
  C  C272  1  0.86810901  0.29229025  0.83285696  1
  C  C273  1  0.87547106  0.35824622  0.78165530  1
  H  H274  1  0.88269954  0.15437346  0.53257787  1
  O  O275  1  0.98795042  0.02736291  0.52777170  1
  C  C276  1  0.93884152  0.29716007  0.69170488  1
  H  H277  1  0.96989555  0.30079069  0.64047293  1
  O  O278  1  0.95687942  0.40224032  0.57350731  1
  O  O279  1  0.90613643  0.11417161  0.85828270  1
  O  O280  1  0.85530498  0.41769803  0.80160738  1
  C  C281  1  0.95337629  0.06877827  0.53171750  1
  O  O282  1  0.84981861  0.17067578  0.94488669  1
  O  O283  1  0.92237448  0.06358342  0.60276710  1
  O  O284  1  0.91325957  0.47721765  0.66440595  1
  H  H285  1  0.80123791  0.45141941  0.56912054  1
  C  C286  1  0.75627251  0.23298997  0.64461093  1
  C  C287  1  0.77428592  0.28608209  0.58036455  1
  C  C288  1  0.78994952  0.32798744  0.51927243  1
  C  C289  1  0.97876928  0.47135749  0.98018144  1
  O  O290  1  0.80844224  0.49770440  0.59947490  1
  O  O291  1  0.93368760  0.45940907  0.99893871  1
  C  C292  1  0.98827611  0.55524572  0.13889595  1
  C  C293  1  0.80959992  0.94455894  0.27208673  1
  C  C294  1  0.79422955  0.65628625  0.12995967  1
  Cu  Cu295  1  0.96217899  0.98439812  0.28483901  1
  O  O296  1  0.89924555  0.98770137  0.28559104  1
  C  C297  1  0.83757847  0.60221900  0.37298692  1
  C  C298  1  0.80540940  0.65282540  0.41393028  1
  Cu  Cu299  1  0.91643670  0.59296195  0.24938221  1
  H  H300  1  0.81867554  0.70548484  0.43417842  1
  O  O301  1  0.87284166  0.64907325  0.06671867  1
  C  C302  1  0.82784821  0.63563068  0.05941732  1
  H  H303  1  0.83904338  0.91621022  0.30963704  1
  O  O304  1  0.94415008  0.56524930  0.13301853  1
  O  O305  1  0.88273644  0.60983031  0.36675752  1
  C  C306  1  0.76312404  0.91892984  0.27995758  1
  C  C307  1  0.77171230  0.52052211  0.35607540  1
  H  H308  1  0.80752425  0.69084712  0.19424174  1
  C  C309  1  0.81899611  0.53413971  0.34346761  1
  C  C310  1  0.85372844  0.79817057  0.18702794  1
  O  O311  1  0.86431964  0.78551399  0.26132340  1
  C  C312  1  0.75961047  0.63757763  0.43067515  1
  O  O313  1  0.75105641  0.86172514  0.32667280  1
  Cu  Cu314  1  0.91743719  0.59194598  0.00998788  1
  O  O315  1  0.88104943  0.60170208  0.88831609  1
  O  O316  1  0.82027149  0.55054951  0.81799546  1
  C  C317  1  0.83845506  0.58462520  0.88967297  1
  O  O318  1  0.87739217  0.96833542  0.97876769  1
  H  H319  1  0.78707533  0.53021679  0.57443538  1
  C  C320  1  0.80676791  0.59979622  0.97214617  1
  C  C321  1  0.76073337  0.58139964  0.96581884  1
  C  C322  1  0.91579980  0.98451969  0.99773282  1
  Cu  Cu323  1  0.86056169  0.50481237  0.73471673  1
