# generated using pymatgen
data_Zn4H12C24O13
_symmetry_space_group_name_H-M   'P 1'
_cell_length_a   26.55021709
_cell_length_b   26.57676325
_cell_length_c   26.40717583
_cell_angle_alpha   90.00000000
_cell_angle_beta   90.00000000
_cell_angle_gamma   90.00000000
_symmetry_Int_Tables_number   1
_chemical_formula_structural   Zn4H12C24O13
_chemical_formula_sum   'Zn32 H96 C192 O104'
_cell_volume   18633.40061868
_cell_formula_units_Z   8
loop_
 _symmetry_equiv_pos_site_id
 _symmetry_equiv_pos_as_xyz
  1  'x, y, z'
loop_
 _atom_site_type_symbol
 _atom_site_label
 _atom_site_symmetry_multiplicity
 _atom_site_fract_x
 _atom_site_fract_y
 _atom_site_fract_z
 _atom_site_occupancy
  Zn  Zn0  1  0.20398826  0.21452904  0.21417005  1
  H  H1  1  0.16324391  0.06310375  0.23334907  1
  H  H2  1  0.04561140  0.22798275  0.17226497  1
  H  H3  1  0.21842409  0.18706197  0.05148928  1
  O  O4  1  0.23280117  0.21698444  0.13887482  1
  C  C5  1  0.19546178  0.03652623  0.24011249  1
  C  C6  1  0.02417241  0.23979235  0.20653906  1
  O  O7  1  0.12596850  0.24112286  0.21404889  1
  C  C8  1  0.23566247  0.21879112  0.03508729  1
  C  C9  1  0.47215754  0.27344430  0.22417244  1
  C  C10  1  0.25244729  0.26127120  0.06227497  1
  Zn  Zn11  1  0.29272054  0.29360692  0.21990964  1
  H  H12  1  0.28390186  0.34014252  0.06194984  1
  O  O13  1  0.37078777  0.27782837  0.23017914  1
  C  C14  1  0.25216170  0.25583703  0.11926576  1
  O  O15  1  0.27396985  0.28904160  0.14425448  1
  H  H16  1  0.45149886  0.29127332  0.19504782  1
  H  H17  1  0.32116411  0.45375800  0.23887389  1
  C  C18  1  0.27211067  0.30585459  0.04066258  1
  O  O19  1  0.28380334  0.37613412  0.24417824  1
  C  C20  1  0.24703373  0.11282344  0.26192803  1
  C  C21  1  0.24223370  0.05684297  0.25417438  1
  O  O22  1  0.24013891  0.22076734  0.37448021  1
  O  O23  1  0.20929006  0.13875162  0.25019584  1
  C  C24  1  0.25296943  0.21497265  0.48250932  1
  H  H25  1  0.25453053  0.17963681  0.45990042  1
  Zn  Zn26  1  0.29062818  0.20756381  0.30976513  1
  H  H27  1  0.45199877  0.23039751  0.34377646  1
  H  H28  1  0.32113993  0.04442973  0.27543545  1
  C  C29  1  0.28459139  0.02625309  0.26534209  1
  O  O30  1  0.28700557  0.13294835  0.27911029  1
  C  C31  1  0.47322367  0.24065043  0.31064880  1
  O  O32  1  0.36958425  0.23887676  0.30524360  1
  C  C33  1  0.23623151  0.25930178  0.40074994  1
  C  C34  1  0.02143499  0.26912828  0.29403056  1
  C  C35  1  0.24265475  0.26107755  0.45731204  1
  H  H36  1  0.16177944  0.46309586  0.27675863  1
  O  O37  1  0.12887829  0.27428291  0.29104178  1
  C  C38  1  0.19857270  0.48115679  0.27133021  1
  H  H39  1  0.04309993  0.28181704  0.32666412  1
  C  C40  1  0.23434166  0.30777313  0.48097980  1
  O  O41  1  0.23033985  0.30061792  0.37752623  1
  Zn  Zn42  1  0.20511045  0.29805043  0.30050902  1
  H  H43  1  0.21894007  0.33927311  0.46091016  1
  O  O44  1  0.20286889  0.37197733  0.26248287  1
  C  C45  1  0.24387963  0.39783155  0.25584802  1
  C  C46  1  0.24305334  0.45315129  0.26228620  1
  C  C47  1  0.05017624  0.25457893  0.25010899  1
  C  C48  1  0.10498435  0.25792441  0.25375398  1
  C  C49  1  0.39106611  0.25898652  0.26859936  1
  C  C50  1  0.44679770  0.25813586  0.26801962  1
  O  O51  1  0.25070163  0.25036539  0.26234808  1
  C  C52  1  0.28951911  0.47760327  0.25033215  1
  O  O53  1  0.27391437  0.23242829  0.63979936  1
  C  C54  1  0.26012872  0.21619958  0.53446955  1
  H  H55  1  0.26706307  0.18265635  0.55898375  1
  C  C56  1  0.48054143  0.24703372  0.71260995  1
  Zn  Zn57  1  0.30015714  0.23450785  0.71825459  1
  O  O58  1  0.30228435  0.15613182  0.74894008  1
  H  H59  1  0.45582956  0.23849555  0.67900381  1
  H  H60  1  0.33791963  0.06938120  0.74078343  1
  C  C61  1  0.30294488  0.04929967  0.74627329  1
  O  O62  1  0.23374362  0.30238908  0.63473683  1
  H  H63  1  0.22585275  0.34060317  0.55626467  1
  C  C64  1  0.23375099  0.30751866  0.53271995  1
  O  O65  1  0.13142047  0.30261954  0.72668669  1
  O  O66  1  0.22664127  0.39099609  0.72631355  1
  C  C67  1  0.02539474  0.27958182  0.71536928  1
  H  H68  1  0.04847564  0.30012304  0.68945179  1
  H  H69  1  0.18410250  0.46753156  0.72144215  1
  C  C70  1  0.21218610  0.49521513  0.73368411  1
  Zn  Zn71  1  0.21118953  0.31642459  0.71715644  1
  C  C72  1  0.24976684  0.26270833  0.55729469  1
  C  C73  1  0.25327754  0.26535117  0.61358381  1
  O  O74  1  0.37729738  0.26108471  0.70900419  1
  Zn  Zn75  1  0.21386896  0.23416799  0.80333435  1
  H  H76  1  0.18402172  0.07806802  0.79018379  1
  H  H77  1  0.05572321  0.21869469  0.82531005  1
  C  C78  1  0.21522945  0.05470898  0.77572201  1
  O  O79  1  0.22298762  0.15708277  0.77360100  1
  C  C80  1  0.03165621  0.23315538  0.79401007  1
  H  H81  1  0.22837627  0.18910437  0.96051909  1
  C  C82  1  0.24092795  0.22158384  0.98390500  1
  O  O83  1  0.24266719  0.23099274  0.87985396  1
  C  C84  1  0.21205923  0.00293370  0.77385725  1
  C  C85  1  0.26197397  0.13409406  0.76098845  1
  C  C86  1  0.25978187  0.07834119  0.75993577  1
  O  O87  1  0.13466155  0.25167044  0.78982965  1
  C  C88  1  0.11058045  0.27161207  0.75608818  1
  C  C89  1  0.05391774  0.26084810  0.75485424  1
  C  C90  1  0.25995737  0.26528404  0.95965144  1
  C  C91  1  0.26222824  0.26767667  0.90365103  1
  C  C92  1  0.45458069  0.26377600  0.75559656  1
  C  C93  1  0.26090362  0.41351046  0.75075534  1
  C  C94  1  0.25516428  0.46990090  0.75123587  1
  C  C95  1  0.39903577  0.27066696  0.75044137  1
  O  O96  1  0.25781196  0.27362283  0.76239073  1
  O  O97  1  0.29555582  0.39106706  0.77138274  1
  C  C98  1  0.29617311  0.49646302  0.77089208  1
  H  H99  1  0.46007170  0.29259781  0.83093720  1
  O  O100  1  0.37865009  0.28717446  0.79073194  1
  C  C101  1  0.48070278  0.27673833  0.79980798  1
  Zn  Zn102  1  0.30146390  0.31402082  0.80246400  1
  O  O103  1  0.28385066  0.30448341  0.88304502  1
  C  C104  1  0.27424013  0.30799344  0.98801603  1
  H  H105  1  0.28743135  0.34414630  0.96885327  1
  H  H106  1  0.32768994  0.47443962  0.78491738  1
  C  C107  1  0.25206770  0.61438009  0.24852010  1
  O  O108  1  0.25928038  0.72478335  0.12583683  1
  C  C109  1  0.26353026  0.72759288  0.02424581  1
  H  H110  1  0.27824787  0.69633998  0.04640128  1
  O  O111  1  0.28897826  0.63719404  0.23277571  1
  O  O112  1  0.36645903  0.74102100  0.20530403  1
  Zn  Zn113  1  0.29197927  0.71264851  0.19872448  1
  H  H114  1  0.33016473  0.54697596  0.24365394  1
  H  H115  1  0.44118187  0.71286240  0.17424966  1
  C  C116  1  0.46608796  0.72802995  0.20333300  1
  C  C117  1  0.02288851  0.76933814  0.20719260  1
  Zn  Zn118  1  0.20058453  0.79372108  0.20373023  1
  O  O119  1  0.24050466  0.80585012  0.13089640  1
  C  C120  1  0.24429710  0.77004511  0.04895375  1
  C  C121  1  0.24756498  0.76764310  0.10617961  1
  O  O122  1  0.24355395  0.75005934  0.24551797  1
  C  C123  1  0.18881465  0.98589465  0.23997137  1
  H  H124  1  0.21113657  0.84618247  0.04293850  1
  C  C125  1  0.22777348  0.81330835  0.02310334  1
  O  O126  1  0.19226331  0.87433673  0.22911948  1
  H  H127  1  0.15191522  0.96985223  0.23298626  1
  H  H128  1  0.04662437  0.78328359  0.17538451  1
  O  O129  1  0.12886396  0.76736377  0.21373916  1
  C  C130  1  0.22793593  0.89838650  0.24870705  1
  C  C131  1  0.23138074  0.95430637  0.24883097  1
  C  C132  1  0.38879630  0.75608128  0.24454516  1
  C  C133  1  0.44394440  0.75058345  0.24764245  1
  Zn  Zn134  1  0.21156809  0.71420241  0.29402336  1
  H  H135  1  0.03453798  0.71726669  0.32493636  1
  C  C136  1  0.01809578  0.73608133  0.29294766  1
  H  H137  1  0.17073411  0.55919035  0.27350255  1
  C  C138  1  0.20347342  0.53350196  0.26718324  1
  H  H139  1  0.23599566  0.67312677  0.45500717  1
  O  O140  1  0.21314758  0.63843018  0.26079412  1
  C  C141  1  0.24908493  0.55787484  0.25633251  1
  O  O142  1  0.12479982  0.73143571  0.28860968  1
  O  O143  1  0.25457683  0.71074895  0.36197500  1
  C  C144  1  0.25143256  0.70618782  0.47267446  1
  C  C145  1  0.26408530  0.74858909  0.44291208  1
  C  C146  1  0.29358325  0.52818164  0.25074554  1
  C  C147  1  0.10251003  0.75007928  0.25104796  1
  C  C148  1  0.04671248  0.75246862  0.25074352  1
  C  C149  1  0.26693190  0.75006643  0.38703816  1
  O  O150  1  0.26366972  0.87407418  0.26795565  1
  C  C151  1  0.27765154  0.97456404  0.26404806  1
  C  C152  1  0.27443420  0.79405441  0.46756157  1
  O  O153  1  0.28030554  0.78769371  0.36206207  1
  H  H154  1  0.28473322  0.82957694  0.44994898  1
  O  O155  1  0.36426181  0.77504229  0.28098665  1
  C  C156  1  0.47473107  0.76923145  0.28791284  1
  H  H157  1  0.30788925  0.94608365  0.27090062  1
  Zn  Zn158  1  0.29023123  0.79796470  0.28145511  1
  H  H159  1  0.45746053  0.78763221  0.31976946  1
  Zn  Zn160  1  0.20517784  0.72505968  0.71381988  1
  H  H161  1  0.17586310  0.56729655  0.71835310  1
  H  H162  1  0.24523695  0.67357609  0.54887182  1
  O  O163  1  0.20895825  0.64911013  0.73033461  1
  C  C164  1  0.20836312  0.54629844  0.73318904  1
  O  O165  1  0.23947268  0.72497826  0.63382506  1
  H  H166  1  0.06238427  0.74170291  0.67316666  1
  C  C167  1  0.03146864  0.74474591  0.70414222  1
  C  C168  1  0.25165425  0.70649175  0.52512621  1
  C  C169  1  0.25079534  0.62878002  0.74543608  1
  C  C170  1  0.25201601  0.57293333  0.74855202  1
  O  O171  1  0.13181581  0.76100025  0.71538887  1
  C  C172  1  0.24886912  0.91959944  0.74552227  1
  O  O173  1  0.24851302  0.77406906  0.74716046  1
  C  C174  1  0.26221227  0.75162558  0.54942998  1
  O  O175  1  0.36555168  0.77985460  0.70376066  1
  O  O176  1  0.26950352  0.80156597  0.62361760  1
  H  H177  1  0.28219576  0.83046561  0.53707301  1
  C  C178  1  0.25697183  0.75870654  0.60590727  1
  C  C179  1  0.27604874  0.79384287  0.51976035  1
  H  H180  1  0.45589933  0.78370100  0.65898475  1
  C  C181  1  0.47776683  0.77612610  0.69473407  1
  Zn  Zn182  1  0.28987585  0.81453766  0.70246004  1
  O  O183  1  0.28299340  0.89682740  0.72243192  1
  C  C184  1  0.44904588  0.76751306  0.73831171  1
  C  C185  1  0.39297783  0.76822254  0.74100553  1
  H  H186  1  0.32847269  0.97405321  0.72936409  1
  C  C187  1  0.29875567  0.99755398  0.74368317  1
  C  C188  1  0.26331987  0.72518531  0.97213779  1
  H  H189  1  0.28232026  0.69146692  0.95205086  1
  O  O190  1  0.26990384  0.72825225  0.86623335  1
  Zn  Zn191  1  0.29415909  0.72941769  0.79112199  1
  H  H192  1  0.32728969  0.57159689  0.77673946  1
  C  C193  1  0.29575158  0.54793907  0.76418143  1
  O  O194  1  0.28739829  0.65511833  0.75876933  1
  O  O195  1  0.23278047  0.80197614  0.86553018  1
  O  O196  1  0.12275332  0.79880007  0.79013064  1
  Zn  Zn197  1  0.20407887  0.81628754  0.79294637  1
  H  H198  1  0.03527911  0.79311057  0.82245549  1
  C  C199  1  0.01653277  0.78045064  0.78864150  1
  C  C200  1  0.24803378  0.76738363  0.94502437  1
  H  H201  1  0.22118837  0.84234889  0.94581844  1
  H  H202  1  0.17800456  0.98421689  0.79054123  1
  C  C203  1  0.23141325  0.81029555  0.97070846  1
  O  O204  1  0.21159573  0.89775954  0.76419618  1
  C  C205  1  0.10496580  0.77656493  0.75154589  1
  C  C206  1  0.04987727  0.76659678  0.75000569  1
  C  C207  1  0.25122387  0.76525839  0.88814908  1
  H  H208  1  0.45778249  0.75231703  0.82007591  1
  O  O209  1  0.37125749  0.75367798  0.78093543  1
  C  C210  1  0.47620263  0.75695998  0.78338720  1
  C  C211  1  0.25319779  0.97547252  0.75409262  1
  O  O212  1  0.62633029  0.24829880  0.21872587  1
  C  C213  1  0.74707242  0.23248423  0.11184270  1
  C  C214  1  0.74854566  0.04039890  0.24586036  1
  C  C215  1  0.75197837  0.23194849  0.05404675  1
  O  O216  1  0.75769086  0.19567031  0.13765946  1
  C  C217  1  0.76247530  0.18472027  0.02953943  1
  H  H218  1  0.76811127  0.15036241  0.05342437  1
  Zn  Zn219  1  0.79059907  0.19984720  0.20984027  1
  H  H220  1  0.95120914  0.22951523  0.17483093  1
  C  C221  1  0.97195836  0.23814707  0.20778989  1
  H  H222  1  0.81451411  0.03991068  0.19833495  1
  O  O223  1  0.86651418  0.23617916  0.21559974  1
  C  C224  1  0.78749540  0.01596537  0.21885990  1
  O  O225  1  0.78652926  0.12182158  0.23946243  1
  C  C226  1  0.74149432  0.27708504  0.02816044  1
  O  O227  1  0.70618003  0.35254373  0.22787211  1
  C  C228  1  0.74424562  0.43223241  0.24304362  1
  C  C229  1  0.74300753  0.37675204  0.24589204  1
  H  H230  1  0.73628228  0.31204631  0.04775606  1
  Zn  Zn231  1  0.69975748  0.27447681  0.20477651  1
  C  C232  1  0.52375421  0.26594600  0.22221533  1
  O  O233  1  0.73560275  0.27287728  0.13164302  1
  C  C234  1  0.70236616  0.45460957  0.21819020  1
  H  H235  1  0.54109383  0.28045490  0.18782116  1
  H  H236  1  0.67259127  0.43057207  0.20126716  1
  Zn  Zn237  1  0.70975813  0.19124744  0.29629826  1
  H  H238  1  0.67977730  0.03551028  0.29031432  1
  H  H239  1  0.72225566  0.16659207  0.46021203  1
  C  C240  1  0.70893592  0.01402649  0.26889130  1
  C  C241  1  0.73629333  0.20027905  0.48372650  1
  O  O242  1  0.73331777  0.20564166  0.37681188  1
  O  O243  1  0.71411323  0.11246113  0.27911894  1
  C  C244  1  0.74977084  0.09543259  0.25113219  1
  H  H245  1  0.54372500  0.21434305  0.34177673  1
  C  C246  1  0.52421381  0.23142148  0.30763715  1
  O  O247  1  0.62733518  0.21277340  0.29385371  1
  C  C248  1  0.60576282  0.23401063  0.25896622  1
  C  C249  1  0.54964258  0.24332730  0.26169472  1
  O  O250  1  0.74576660  0.23657060  0.25127201  1
  C  C251  1  0.75072565  0.24212138  0.40216109  1
  C  C252  1  0.75277413  0.24398116  0.45808190  1
  C  C253  1  0.76680624  0.28809351  0.48269629  1
  O  O254  1  0.86499289  0.26596062  0.29249144  1
  H  H255  1  0.77449485  0.32185514  0.46264909  1
  H  H256  1  0.94961485  0.27835544  0.32983788  1
  H  H257  1  0.81123664  0.44072103  0.28920366  1
  O  O258  1  0.78052280  0.35386259  0.26547272  1
  C  C259  1  0.97039740  0.27256021  0.29490521  1
  O  O260  1  0.77064538  0.27784181  0.37817362  1
  C  C261  1  0.78176736  0.45955691  0.26953298  1
  Zn  Zn262  1  0.78351272  0.28182620  0.29797391  1
  C  C263  1  0.94478655  0.25477614  0.25072096  1
  C  C264  1  0.88961771  0.25226824  0.25329490  1
  Zn  Zn265  1  0.70644025  0.19306745  0.70820491  1
  H  H266  1  0.55188144  0.22185475  0.68073079  1
  H  H267  1  0.73071820  0.16201346  0.55728163  1
  C  C268  1  0.73795887  0.19705310  0.53569139  1
  O  O269  1  0.74009207  0.19694976  0.63623915  1
  H  H270  1  0.66904316  0.03194425  0.71496115  1
  C  C271  1  0.70190804  0.00857404  0.72562864  1
  O  O272  1  0.71411795  0.11445475  0.73475485  1
  C  C273  1  0.53176577  0.23968219  0.71210399  1
  O  O274  1  0.63455989  0.23170553  0.71642136  1
  C  C275  1  0.74552110  0.03158545  0.74553235  1
  C  C276  1  0.75050157  0.08802002  0.74954761  1
  C  C277  1  0.75704386  0.23767339  0.61846178  1
  C  C278  1  0.75496242  0.23998345  0.56075624  1
  O  O279  1  0.87320067  0.25199798  0.71585275  1
  H  H280  1  0.95017731  0.28311045  0.67803805  1
  C  C281  1  0.97327898  0.27179394  0.71196124  1
  H  H282  1  0.78013919  0.31833310  0.55852957  1
  O  O283  1  0.77111599  0.27520085  0.64259773  1
  C  C284  1  0.80076820  0.45674361  0.73594934  1
  H  H285  1  0.82799296  0.43295550  0.71823529  1
  C  C286  1  0.76773780  0.28540000  0.53517039  1
  Zn  Zn287  1  0.79367075  0.27692366  0.72033937  1
  O  O288  1  0.79433847  0.35304843  0.74936223  1
  O  O289  1  0.74681329  0.22920603  0.75759354  1
  C  C290  1  0.61371919  0.24453473  0.75623731  1
  O  O291  1  0.63644878  0.24736216  0.79827528  1
  C  C292  1  0.55678882  0.24969462  0.75760182  1
  C  C293  1  0.76476282  0.23031364  0.95188361  1
  O  O294  1  0.78767767  0.19185772  0.87288184  1
  C  C295  1  0.76924202  0.18356204  0.97543337  1
  H  H296  1  0.77765419  0.15018190  0.95387128  1
  Zn  Zn297  1  0.79757209  0.18689965  0.79594697  1
  H  H298  1  0.82320136  0.02488289  0.77515654  1
  C  C299  1  0.78763457  0.00527241  0.76373618  1
  H  H300  1  0.95969373  0.19925350  0.82079278  1
  O  O301  1  0.78931861  0.10486746  0.76884512  1
  C  C302  1  0.97974753  0.22435664  0.79303806  1
  C  C303  1  0.77404134  0.23224795  0.89464356  1
  O  O304  1  0.87753640  0.20507907  0.78521060  1
  C  C305  1  0.89604186  0.23509744  0.75307348  1
  C  C306  1  0.95229954  0.24545192  0.75357018  1
  H  H307  1  0.74228323  0.30720385  0.95116099  1
  C  C308  1  0.53234394  0.27158301  0.79942701  1
  O  O309  1  0.72092183  0.35946531  0.78996406  1
  H  H310  1  0.55394987  0.27983814  0.83304564  1
  Zn  Zn311  1  0.71287927  0.27866886  0.80682188  1
  C  C312  1  0.72072280  0.46220084  0.78185146  1
  H  H313  1  0.69017383  0.44349738  0.80313748  1
  C  C314  1  0.74858210  0.27443026  0.97608797  1
  O  O315  1  0.76822246  0.27135043  0.87076916  1
  C  C316  1  0.75985136  0.43361535  0.76137510  1
  C  C317  1  0.75811893  0.37762346  0.76751941  1
  Zn  Zn318  1  0.69987229  0.69309712  0.19865729  1
  H  H319  1  0.69131578  0.67703473  0.03771412  1
  C  C320  1  0.71644192  0.70282865  0.01418452  1
  H  H321  1  0.66541227  0.52317483  0.19833037  1
  O  O322  1  0.70460884  0.61492156  0.21649697  1
  C  C323  1  0.70014536  0.50686585  0.21512204  1
  O  O324  1  0.72053384  0.70459881  0.12087075  1
  H  H325  1  0.53386671  0.71435307  0.16320079  1
  C  C326  1  0.51796264  0.72716644  0.19915866  1
  O  O327  1  0.62511568  0.72696823  0.20040440  1
  C  C328  1  0.74150556  0.74018433  0.09815579  1
  O  O329  1  0.74538760  0.73327492  0.23797426  1
  C  C330  1  0.74117925  0.74158462  0.04149339  1
  C  C331  1  0.74110046  0.58946089  0.23224760  1
  C  C332  1  0.74104768  0.53438800  0.23569101  1
  C  C333  1  0.60328680  0.74255198  0.24081570  1
  C  C334  1  0.54750885  0.74442703  0.23947653  1
  C  C335  1  0.94141348  0.74931568  0.24084617  1
  C  C336  1  0.88466227  0.74387832  0.23621244  1
  C  C337  1  0.74621162  0.93638077  0.23894569  1
  Zn  Zn338  1  0.78713926  0.77925700  0.19132444  1
  O  O339  1  0.78763683  0.85964444  0.21184807  1
  C  C340  1  0.78553042  0.96435483  0.21613312  1
  H  H341  1  0.95043067  0.76949375  0.16478990  1
  O  O342  1  0.76033863  0.77802670  0.12023870  1
  C  C343  1  0.75772196  0.78455709  0.01534954  1
  H  H344  1  0.77293185  0.81849871  0.03882413  1
  O  O345  1  0.86435025  0.75586947  0.19459772  1
  H  H346  1  0.81518452  0.93872124  0.19857609  1
  C  C347  1  0.97130166  0.76448970  0.20083863  1
  C  C348  1  0.75053302  0.88037130  0.23288608  1
  C  C349  1  0.75277071  0.74034789  0.38181704  1
  C  C350  1  0.75400782  0.73752737  0.43915313  1
  O  O351  1  0.76372383  0.70020798  0.35911058  1
  C  C352  1  0.76186236  0.69041580  0.46427106  1
  H  H353  1  0.77327698  0.65505013  0.44354698  1
  Zn  Zn354  1  0.78535104  0.68769289  0.28265311  1
  H  H355  1  0.80508342  0.53518558  0.28638725  1
  O  O356  1  0.86063368  0.73014409  0.27277482  1
  H  H357  1  0.94430735  0.72908481  0.31839556  1
  C  C358  1  0.96779195  0.74030818  0.28760413  1
  C  C359  1  0.77866370  0.51172467  0.26649716  1
  O  O360  1  0.77922783  0.61406554  0.25064442  1
  H  H361  1  0.73716239  0.81326914  0.43826996  1
  C  C362  1  0.74180257  0.78267403  0.46343464  1
  C  C363  1  0.52578721  0.76461004  0.28481194  1
  O  O364  1  0.62597944  0.76179163  0.27762031  1
  H  H365  1  0.55223392  0.77920541  0.31379557  1
  O  O366  1  0.71712167  0.85504830  0.25409473  1
  C  C367  1  0.70667313  0.96203988  0.26278596  1
  Zn  Zn368  1  0.70580926  0.77766418  0.27874466  1
  H  H369  1  0.67412128  0.94315510  0.28178361  1
  O  O370  1  0.73709256  0.77828226  0.35920725  1
  C  C371  1  0.61017456  0.73897732  0.73497696  1
  O  O372  1  0.74913971  0.72976886  0.73339024  1
  C  C373  1  0.74923116  0.73588195  0.54200231  1
  O  O374  1  0.75607753  0.69767754  0.62452009  1
  C  C375  1  0.76170871  0.69042399  0.51561787  1
  H  H376  1  0.76692326  0.65570116  0.54141999  1
  C  C377  1  0.98182390  0.73509622  0.69872788  1
  Zn  Zn378  1  0.79907419  0.68944519  0.69561211  1
  H  H379  1  0.83720035  0.52631413  0.71191270  1
  H  H380  1  0.97115270  0.71760231  0.66346993  1
  O  O381  1  0.79240165  0.61186705  0.71988137  1
  C  C382  1  0.75735908  0.58981549  0.74040464  1
  C  C383  1  0.80342575  0.50769742  0.72852511  1
  O  O384  1  0.87505709  0.70939709  0.70391454  1
  C  C385  1  0.75422072  0.73731302  0.59889903  1
  C  C386  1  0.94932217  0.74577863  0.74033523  1
  C  C387  1  0.89540240  0.72958598  0.74236560  1
  C  C388  1  0.76160202  0.53389570  0.74896261  1
  C  C389  1  0.55578821  0.75270682  0.73847033  1
  C  C390  1  0.52888812  0.77182786  0.69666983  1
  O  O391  1  0.70505497  0.85281123  0.72888755  1
  Zn  Zn392  1  0.70867436  0.77896632  0.69509327  1
  O  O393  1  0.63248958  0.75076045  0.69615461  1
  H  H394  1  0.66906577  0.93725807  0.70910351  1
  H  H395  1  0.54816163  0.77783883  0.65933652  1
  H  H396  1  0.73370493  0.81432699  0.53877307  1
  C  C397  1  0.70157298  0.95679401  0.72408261  1
  C  C398  1  0.74182835  0.93016906  0.74673193  1
  O  O399  1  0.74627473  0.77919254  0.62272940  1
  C  C400  1  0.73900570  0.78072733  0.51584476  1
  C  C401  1  0.74266990  0.87366084  0.74718447  1
  Zn  Zn402  1  0.71117057  0.68917975  0.77881910  1
  H  H403  1  0.68971756  0.53939738  0.79361002  1
  H  H404  1  0.54798398  0.72950715  0.81679571  1
  H  H405  1  0.69261644  0.67621947  0.93764082  1
  C  C406  1  0.71621915  0.70282381  0.96265341  1
  C  C407  1  0.72001425  0.51459260  0.77661915  1
  O  O408  1  0.72040400  0.61244214  0.76122469  1
  O  O409  1  0.72667159  0.70432830  0.85495918  1
  C  C410  1  0.52753295  0.74520074  0.78409953  1
  C  C411  1  0.74280079  0.74130920  0.93648118  1
  O  O412  1  0.63071962  0.72013606  0.77375491  1
  C  C413  1  0.74624922  0.73972429  0.88030233  1
  O  O414  1  0.86838055  0.74424507  0.77871057  1
  O  O415  1  0.78031276  0.85111692  0.76518915  1
  C  C416  1  0.75907209  0.78342705  0.96340187  1
  H  H417  1  0.77155222  0.81724293  0.94273563  1
  C  C418  1  0.96442035  0.77126317  0.78391834  1
  H  H419  1  0.93693230  0.77671880  0.81444453  1
  H  H420  1  0.81780765  0.93019594  0.77907198  1
  O  O421  1  0.76757557  0.77549126  0.85735283  1
  Zn  Zn422  1  0.79389671  0.77163006  0.77562104  1
  C  C423  1  0.78537756  0.95273923  0.76599988  1
