# generated using pymatgen
data_Zn5H9C27O19
_symmetry_space_group_name_H-M   'P 1'
_cell_length_a   23.71945799
_cell_length_b   19.37353431
_cell_length_c   18.74944184
_cell_angle_alpha   90.00000000
_cell_angle_beta   90.00000000
_cell_angle_gamma   90.00000000
_symmetry_Int_Tables_number   1
_chemical_formula_structural   Zn5H9C27O19
_chemical_formula_sum   'Zn40 H72 C216 O152'
_cell_volume   8615.92600923
_cell_formula_units_Z   8
loop_
 _symmetry_equiv_pos_site_id
 _symmetry_equiv_pos_as_xyz
  1  'x, y, z'
loop_
 _atom_site_type_symbol
 _atom_site_label
 _atom_site_symmetry_multiplicity
 _atom_site_fract_x
 _atom_site_fract_y
 _atom_site_fract_z
 _atom_site_occupancy
  O  O0  1  0.02980556  0.12816893  0.07684626  1
  C  C1  1  0.48064195  0.21436713  0.15541938  1
  O  O2  1  0.22795708  0.15842380  0.35660612  1
  C  C3  1  0.33115136  0.00545961  0.25547569  1
  O  O4  1  0.40456188  0.08765461  0.02065300  1
  H  H5  1  0.41615845  0.06455357  0.22613570  1
  C  C6  1  0.42263831  0.16680733  0.36251470  1
  C  C7  1  0.37663818  0.03757358  0.20594831  1
  C  C8  1  0.21365481  0.05557369  0.05210077  1
  C  C9  1  0.23071994  0.21763500  0.32361508  1
  C  C10  1  0.36307935  0.04711111  0.12930819  1
  H  H11  1  0.35946370  0.21807883  0.25305121  1
  C  C12  1  0.41195179  0.07185321  0.08603846  1
  C  C13  1  0.44277792  0.18997010  0.29302472  1
  O  O14  1  0.40617854  0.14912604  0.41872414  1
  O  O15  1  0.16041934  0.05669603  0.05600716  1
  O  O16  1  0.45827900  0.07694708  0.11641387  1
  O  O17  1  0.02282999  0.21313684  0.15042721  1
  Zn  Zn18  1  0.26802671  0.07834321  0.29952198  1
  Zn  Zn19  1  0.10742610  0.15189536  0.04418354  1
  H  H20  1  0.32138546  0.20396810  0.43221820  1
  C  C21  1  0.30929814  0.03456213  0.09134224  1
  H  H22  1  0.31032945  0.04515838  0.03177620  1
  C  C23  1  0.24832885  0.03085786  0.11224334  1
  O  O24  1  0.22896583  0.00987366  0.17064926  1
  C  C25  1  0.40287440  0.21208725  0.23950374  1
  C  C26  1  0.42223975  0.22057114  0.16960623  1
  H  H27  1  0.49276910  0.21811810  0.10066742  1
  C  C28  1  0.32399260  0.24497619  0.39015313  1
  O  O29  1  0.19449947  0.23205235  0.28406974  1
  C  C30  1  0.00013518  0.16832731  0.11626633  1
  C  C31  1  0.38146488  0.24702834  0.11557939  1
  O  O32  1  0.42424164  0.09715988  0.86444890  1
  C  C33  1  0.01892358  0.12506356  0.87631117  1
  O  O34  1  0.40249189  0.13122089  0.68288446  1
  O  O35  1  0.17213899  0.01812995  0.83271753  1
  C  C36  1  0.22455815  0.08876969  0.52193982  1
  O  O37  1  0.23916893  0.19395390  0.87378698  1
  C  C38  1  0.47688067  0.09486809  0.86274656  1
  H  H39  1  0.31792483  0.08923600  0.61967495  1
  O  O40  1  0.26532096  0.17490930  0.81535206  1
  C  C41  1  0.02741669  0.05660901  0.89355150  1
  C  C42  1  0.37941444  0.18628511  0.67899414  1
  Zn  Zn43  1  0.18589829  0.10548160  0.90131778  1
  H  H44  1  0.06551459  0.03744710  0.92208392  1
  C  C45  1  0.32862805  0.19790703  0.62897634  1
  C  C46  1  0.18498036  0.00829832  0.76825272  1
  C  C47  1  0.30270511  0.14016483  0.60254369  1
  O  O48  1  0.15860679  0.04020545  0.71887009  1
  O  O49  1  0.23603736  0.07417371  0.99478094  1
  Zn  Zn50  1  0.07837389  0.03053229  0.68518425  1
  C  C51  1  0.23595455  0.21399274  0.54077109  1
  C  C52  1  0.25721753  0.14603734  0.55134431  1
  C  C53  1  0.06818837  0.17258701  0.89242679  1
  Zn  Zn54  1  0.41534314  0.17669286  0.96151528  1
  O  O55  1  0.11186222  0.15113351  0.93648695  1
  O  O56  1  0.39361800  0.24038632  0.71994133  1
  Zn  Zn57  1  0.33555888  0.24341231  0.81945941  1
  O  O58  1  0.00872644  0.11476039  0.61112893  1
  C  C59  1  0.47349186  0.00757598  0.76538308  1
  C  C60  1  0.00764452  0.06075032  0.64024715  1
  O  O61  1  0.06665898  0.22947909  0.86935316  1
  O  O62  1  0.19864231  0.04119490  0.50378670  1
  H  H63  1  0.20240160  0.22544307  0.50279969  1
  O  O64  1  0.13509329  0.25439356  0.06229951  1
  H  H65  1  0.10269909  0.42659492  0.09490955  1
  C  C66  1  0.34842653  0.40602959  0.23034543  1
  C  C67  1  0.33927030  0.35584694  0.29097519  1
  H  H68  1  0.41089675  0.39041549  0.36420289  1
  O  O69  1  0.40341364  0.25329014  0.05429580  1
  C  C70  1  0.37822685  0.35076573  0.35022361  1
  O  O71  1  0.32782832  0.38255306  0.00888500  1
  H  H72  1  0.26111107  0.32543053  0.24132010  1
  C  C73  1  0.29119258  0.31570613  0.28648045  1
  O  O74  1  0.33093247  0.26117958  0.12733272  1
  C  C75  1  0.36528637  0.29675012  0.39580078  1
  O  O76  1  0.39343214  0.43914243  0.22685921  1
  Zn  Zn77  1  0.28446403  0.34794460  0.09190581  1
  O  O78  1  0.20601622  0.41524653  0.07538794  1
  O  O79  1  0.30940725  0.41408720  0.18651016  1
  C  C80  1  0.17705304  0.28036492  0.02871492  1
  O  O81  1  0.22602829  0.26298441  0.04645372  1
  C  C82  1  0.09761873  0.47934937  0.07360938  1
  Zn  Zn83  1  0.43198004  0.29304464  0.47769442  1
  C  C84  1  0.20292842  0.47883183  0.07886266  1
  C  C85  1  0.28728084  0.25996243  0.33374739  1
  Zn  Zn86  1  0.32234983  0.48530419  0.01299650  1
  Zn  Zn87  1  0.20803105  0.42459848  0.67992008  1
  C  C88  1  0.11767637  0.35315842  0.94904669  1
  C  C89  1  0.17094191  0.33004514  0.96825188  1
  C  C90  1  0.27006486  0.38305435  0.81835961  1
  C  C91  1  0.16577679  0.41164981  0.84279663  1
  C  C92  1  0.26160927  0.26944713  0.57426986  1
  Zn  Zn93  1  0.32655049  0.44592797  0.54093209  1
  O  O94  1  0.25614436  0.39653077  0.58747419  1
  H  H95  1  0.40949101  0.42277991  0.82253525  1
  O  O96  1  0.16730494  0.44548355  0.78642353  1
  C  C97  1  0.40509342  0.43572881  0.68035230  1
  Zn  Zn98  1  0.38617528  0.34880617  0.93832044  1
  O  O99  1  0.47531025  0.36052386  0.89493972  1
  C  C100  1  0.43874778  0.46489170  0.80463447  1
  H  H101  1  0.25919759  0.32477973  0.94684980  1
  O  O102  1  0.31513500  0.34988500  0.83949942  1
  Zn  Zn103  1  0.47051129  0.29270262  0.71839823  1
  C  C104  1  0.06053256  0.42107692  0.86846071  1
  H  H105  1  0.38893071  0.35228993  0.57945826  1
  O  O106  1  0.41176858  0.36998298  0.67347655  1
  C  C107  1  0.11610025  0.39747115  0.88910843  1
  C  C108  1  0.21900950  0.34439124  0.92572794  1
  C  C109  1  0.44554389  0.47657457  0.72394736  1
  O  O110  1  0.27206068  0.41491956  0.76165303  1
  H  H111  1  0.32957745  0.30967285  0.64068184  1
  C  C112  1  0.21856919  0.38003113  0.86178365  1
  C  C113  1  0.23703535  0.34089117  0.55515235  1
  O  O114  1  0.37325320  0.46833986  0.64152017  1
  O  O115  1  0.01614661  0.44120817  0.85175328  1
  C  C116  1  0.31118523  0.26527968  0.61386072  1
  H  H117  1  0.08343877  0.33370232  0.97801249  1
  O  O118  1  0.40437372  0.46112426  0.94551864  1
  C  C119  1  0.44876827  0.49859191  0.93979485  1
  O  O120  1  0.20156256  0.34624498  0.50771488  1
  O  O121  1  0.47939837  0.25940911  0.56702689  1
  O  O122  1  0.38673995  0.25319021  0.90200061  1
  O  O123  1  0.37523962  0.35645352  0.53272891  1
  C  C124  1  0.15562770  0.56107932  0.29497171  1
  H  H125  1  0.27253189  0.54822974  0.27423130  1
  C  C126  1  0.22963775  0.72884631  0.34351732  1
  O  O127  1  0.24698805  0.57328517  0.43973467  1
  H  H128  1  0.14331680  0.69519597  0.34293588  1
  O  O129  1  0.16685918  0.50359621  0.27811552  1
  Zn  Zn130  1  0.06299623  0.67069578  0.26248905  1
  C  C131  1  0.20319511  0.61468738  0.30824667  1
  C  C132  1  0.36031477  0.62292366  0.30523145  1
  O  O133  1  0.10587671  0.58348570  0.30262615  1
  C  C134  1  0.09321299  0.63212016  0.07515770  1
  H  H135  1  0.18959170  0.66166618  0.48644187  1
  O  O136  1  0.36944946  0.56117274  0.29128400  1
  H  H137  1  0.43513075  0.67181966  0.04604951  1
  O  O138  1  0.44996454  0.65216851  0.17912418  1
  Zn  Zn139  1  0.41024450  0.53836190  0.18201257  1
  C  C140  1  0.09605747  0.70400197  0.10065299  1
  C  C141  1  0.25871795  0.59795301  0.29347847  1
  C  C142  1  0.14903388  0.59532757  0.07017654  1
  O  O143  1  0.39928095  0.66479093  0.31970378  1
  C  C144  1  0.18747279  0.67946092  0.33408705  1
  C  C145  1  0.30099848  0.64614315  0.30790174  1
  H  H146  1  0.00627456  0.62295963  0.10089059  1
  C  C147  1  0.27974844  0.58315421  0.48776365  1
  O  O148  1  0.24725331  0.51620463  0.08054371  1
  H  H149  1  0.41261688  0.54011919  0.04284997  1
  H  H150  1  0.18721437  0.62870790  0.07760184  1
  O  O151  1  0.10385151  0.71398966  0.16645036  1
  O  O152  1  0.49493987  0.50553676  0.18577513  1
  C  C153  1  0.28565590  0.71180228  0.33307856  1
  O  O154  1  0.38166782  0.53572270  0.07736412  1
  C  C155  1  0.15055738  0.51762863  0.06404660  1
  C  C156  1  0.04016788  0.59508034  0.07445549  1
  Zn  Zn157  1  0.48898455  0.67180620  0.31856587  1
  C  C158  1  0.47724310  0.68617322  0.03677698  1
  O  O159  1  0.32596223  0.54937033  0.49751192  1
  C  C160  1  0.03719941  0.51214033  0.08347494  1
  C  C161  1  0.49862956  0.67170769  0.16446034  1
  H  H162  1  0.02869831  0.74771147  0.36222579  1
  O  O163  1  0.09987199  0.74814127  0.05267954  1
  O  O164  1  0.06572266  0.73361211  0.35543692  1
  O  O165  1  0.18918802  0.52281102  0.64228467  1
  O  O166  1  0.28280266  0.53190388  0.91320258  1
  O  O167  1  0.36515258  0.65858272  0.72766036  1
  O  O168  1  0.44807564  0.64155096  0.53277016  1
  C  C169  1  0.21961656  0.61154232  0.85338989  1
  C  C170  1  0.14195420  0.68719209  0.82912947  1
  C  C171  1  0.17101328  0.60267132  0.74621675  1
  C  C172  1  0.19968370  0.71377637  0.59010076  1
  H  H173  1  0.23946386  0.53671345  0.76504678  1
  H  H174  1  0.19476010  0.69399272  0.92398989  1
  O  O175  1  0.12084873  0.59425761  0.63322077  1
  H  H176  1  0.34095142  0.61156148  0.61376287  1
  C  C177  1  0.23300979  0.72040885  0.65158622  1
  Zn  Zn178  1  0.41329885  0.56205167  0.77992947  1
  O  O179  1  0.46935921  0.69506627  0.84620644  1
  H  H180  1  0.10026541  0.67141920  0.72449992  1
  C  C181  1  0.13408694  0.65541501  0.76228236  1
  C  C182  1  0.30272060  0.64232668  0.60665740  1
  C  C183  1  0.26686421  0.63500555  0.54800239  1
  C  C184  1  0.21683786  0.66992597  0.53461984  1
  O  O185  1  0.27843286  0.63958242  0.94986242  1
  C  C186  1  0.15928129  0.57072529  0.66991409  1
  C  C187  1  0.21447000  0.57876524  0.78701156  1
  Zn  Zn188  1  0.08941343  0.55515178  0.99515304  1
  C  C189  1  0.28442149  0.68598756  0.66037548  1
  Zn  Zn190  1  0.33124546  0.70826434  0.88243282  1
  O  O191  1  0.40406828  0.67547554  0.93063265  1
  C  C192  1  0.45561265  0.68338901  0.90728287  1
  C  C193  1  0.18415642  0.66732145  0.87406682  1
  C  C194  1  0.32010132  0.68841210  0.72754846  1
  C  C195  1  0.26101383  0.58974733  0.91139966  1
  O  O196  1  0.29918062  0.71910637  0.78181768  1
  H  H197  1  0.48402742  0.51363836  0.62788597  1
  C  C198  1  0.49727611  0.69526881  0.96517165  1
  O  O199  1  0.11964008  0.74607646  0.52880690  1
  C  C200  1  0.47918857  0.59648477  0.52381216  1
  C  C201  1  0.48671843  0.51654862  0.69118770  1
  C  C202  1  0.10315210  0.74654822  0.84798302  1
  O  O203  1  0.46993605  0.53139616  0.98757843  1
  C  C204  1  0.46813586  0.50996809  0.86605555  1
  O  O205  1  0.26598957  0.83586506  0.37623103  1
  O  O206  1  0.09342389  0.91509719  0.48728633  1
  O  O207  1  0.38352791  0.90969490  0.29922688  1
  O  O208  1  0.17376747  0.82723307  0.37439973  1
  O  O209  1  0.01826349  0.87185584  0.06911309  1
  Zn  Zn210  1  0.09812808  0.79799032  0.42832282  1
  Zn  Zn211  1  0.32808193  0.87242244  0.45237507  1
  Zn  Zn212  1  0.34485758  0.94721646  0.15952654  1
  O  O213  1  0.04737342  0.89939420  0.46068889  1
  C  C214  1  0.22145688  0.80340779  0.36347356  1
  H  H215  1  0.24987022  0.94645966  0.26771244  1
  O  O216  1  0.33995388  0.96769394  0.38000472  1
  Zn  Zn217  1  0.48376042  0.90521703  0.49421115  1
  C  C218  1  0.35565100  0.95920148  0.31577631  1
  C  C219  1  0.26828876  0.98910982  0.23773879  1
  H  H220  1  0.31434766  0.75310166  0.34733383  1
  O  O221  1  0.40125443  0.89101811  0.49508915  1
  C  C222  1  0.27839960  0.88654186  0.67565373  1
  H  H223  1  0.25281724  0.95116685  0.87015071  1
  O  O224  1  0.02812619  0.90608923  0.90631925  1
  Zn  Zn225  1  0.05004059  0.81543582  0.97577792  1
  O  O226  1  0.03597258  0.91387985  0.70504506  1
  H  H227  1  0.22063343  0.75931417  0.68915530  1
  C  C228  1  0.29580795  0.85862323  0.60244684  1
  O  O229  1  0.11377592  0.78109416  0.90404049  1
  H  H230  1  0.33799376  0.81413720  0.71764522  1
  C  C231  1  0.26009181  0.93383303  0.81401157  1
  H  H232  1  0.21254008  0.95942822  0.64129262  1
  C  C233  1  0.30985228  0.85737730  0.73105348  1
  C  C234  1  0.33255707  0.86012926  0.86624881  1
  Zn  Zn235  1  0.45140621  0.81610699  0.80539967  1
  O  O236  1  0.32933448  0.81149127  0.59447100  1
  O  O237  1  0.13300838  0.79924156  0.63179674  1
  Zn  Zn238  1  0.06970210  0.81116343  0.70929366  1
  O  O239  1  0.27624137  0.89040336  0.54904171  1
  C  C240  1  0.30143390  0.88200159  0.80141577  1
  O  O241  1  0.36899766  0.80763623  0.85414407  1
  O  O242  1  0.43195087  0.89222841  0.70486185  1
  C  C243  1  0.22928369  0.95494676  0.75646685  1
  O  O244  1  0.32716185  0.88427840  0.92331201  1
  H  H245  1  0.39237096  0.88394457  0.54436401  1
  C  C246  1  0.23795539  0.93644190  0.68412372  1
  C  C247  1  0.47471450  0.91436944  0.67341937  1
  O  O248  1  0.49109396  0.89166094  0.61727299  1
  H  H249  1  0.42851822  0.99584231  0.77914488  1
  O  O250  1  0.48881261  0.87337331  0.89054968  1
  O  O251  1  0.06280383  0.76535712  0.81016604  1
  C  C252  1  0.14788766  0.75735264  0.58302258  1
  O  O253  1  0.68364528  0.02313671  0.15326518  1
  C  C254  1  0.51694682  0.19303168  0.20776110  1
  C  C255  1  0.82251084  0.14730141  0.11786869  1
  H  H256  1  0.94459622  0.08014834  0.03911008  1
  O  O257  1  0.58703523  0.16318675  0.12329890  1
  C  C258  1  0.85746717  0.10834883  0.07299383  1
  O  O259  1  0.61994034  0.20011454  0.22279078  1
  C  C260  1  0.67688502  0.02649861  0.42212285  1
  H  H261  1  0.74169384  0.06193933  0.25926975  1
  C  C262  1  0.50228286  0.18196920  0.27947088  1
  H  H263  1  0.77723702  0.13633629  0.12738133  1
  C  C264  1  0.84679358  0.19955152  0.15831089  1
  O  O265  1  0.78045168  0.04132036  0.04127283  1
  C  C266  1  0.57888389  0.18629997  0.18450853  1
  H  H267  1  0.68586417  0.02901630  0.47991474  1
  C  C268  1  0.91548123  0.11357817  0.06998064  1
  Zn  Zn269  1  0.60758432  0.22134872  0.44179309  1
  Zn  Zn270  1  0.54246236  0.06256096  0.09193855  1
  C  C271  1  0.93492773  0.16558194  0.11579497  1
  O  O272  1  0.81781306  0.09150661  0.36400112  1
  C  C273  1  0.80643582  0.24608682  0.20040065  1
  C  C274  1  0.77381376  0.07508219  0.39091370  1
  C  C275  1  0.82935118  0.05117986  0.02513829  1
  C  C276  1  0.71679616  0.04912350  0.37075957  1
  C  C277  1  0.70632010  0.04740128  0.29631405  1
  O  O278  1  0.75398978  0.22476447  0.20029158  1
  C  C279  1  0.90452391  0.21340840  0.15497726  1
  C  C280  1  0.65274294  0.02916726  0.27252177  1
  C  C281  1  0.64241058  0.01987031  0.19500168  1
  H  H282  1  0.53073346  0.15330615  0.31846923  1
  Zn  Zn283  1  0.77435144  0.07404136  0.49600534  1
  C  C284  1  0.62285599  0.00748301  0.39616403  1
  C  C285  1  0.61260902  0.00734776  0.32350293  1
  O  O286  1  0.59225832  0.00960533  0.17570275  1
  O  O287  1  0.86587067  0.19366217  0.78677552  1
  C  C288  1  0.92684759  0.10718276  0.83463853  1
  C  C289  1  0.56539951  0.06653622  0.78890214  1
  H  H290  1  0.90392095  0.07354507  0.62490255  1
  O  O291  1  0.80598462  0.04571838  0.59442224  1
  C  C292  1  0.98328625  0.01072661  0.87577827  1
  C  C293  1  0.50842234  0.05279074  0.80284905  1
  C  C294  1  0.87103917  0.13449808  0.80660795  1
  C  C295  1  0.65128269  0.04219361  0.70989047  1
  C  C296  1  0.97145544  0.15320680  0.84415639  1
  O  O297  1  0.68175808  0.08463791  0.73972673  1
  H  H298  1  0.59215518  0.10231052  0.82023963  1
  C  C299  1  0.72984806  0.22231888  0.52631205  1
  O  O300  1  0.73954151  0.19727539  0.94459671  1
  O  O301  1  0.68496517  0.14893261  0.86751292  1
  C  C302  1  0.93312194  0.03812405  0.84569776  1
  C  C303  1  0.91340642  0.02152895  0.64596850  1
  O  O304  1  0.83228308  0.09011868  0.79783220  1
  H  H305  1  0.97105059  0.20754846  0.83164572  1
  C  C306  1  0.69492377  0.19370656  0.91673583  1
  O  O307  1  0.50166533  0.12878171  0.90735378  1
  Zn  Zn308  1  0.74510091  0.08433434  0.82905995  1
  C  C309  1  0.59080240  0.03431106  0.73084973  1
  O  O310  1  0.71627308  0.15846087  0.51877343  1
  H  H311  1  0.59545269  0.23129928  0.84774405  1
  O  O312  1  0.85214054  0.02503928  0.97046200  1
  C  C313  1  0.97035804  0.00446837  0.66227572  1
  O  O314  1  0.59471310  0.03257301  0.99143180  1
  C  C315  1  0.64728155  0.24734098  0.94046698  1
  O  O316  1  0.77494155  0.23974368  0.54673135  1
  H  H317  1  0.63474707  0.24237369  0.60546210  1
  O  O318  1  0.66952594  0.00334537  0.65991921  1
  C  C319  1  0.62209115  0.32735506  0.40664709  1
  O  O320  1  0.96392868  0.44112496  0.15380553  1
  C  C321  1  0.61644023  0.35396236  0.33061548  1
  C  C322  1  0.67323092  0.28661122  0.42577472  1
  O  O323  1  0.66269740  0.34737805  0.30073294  1
  Zn  Zn324  1  0.56534476  0.44954327  0.21787830  1
  Zn  Zn325  1  0.68654427  0.38056843  0.47194041  1
  O  O326  1  0.66188265  0.35468202  0.13427020  1
  C  C327  1  0.61788878  0.35898291  0.09643360  1
  O  O328  1  0.58002909  0.39983458  0.11391407  1
  Zn  Zn329  1  0.68199724  0.27948967  0.21206883  1
  C  C330  1  0.99724207  0.47149961  0.12136711  1
  O  O331  1  0.57474814  0.38480075  0.30600167  1
  C  C332  1  0.61213803  0.32111824  0.02760557  1
  H  H333  1  0.69533766  0.26824790  0.03556907  1
  C  C334  1  0.56345851  0.32260992  0.45851120  1
  O  O335  1  0.82239765  0.29307942  0.23617700  1
  O  O336  1  0.51638315  0.32994734  0.42771386  1
  H  H337  1  0.92636020  0.25279419  0.18573254  1
  C  C338  1  0.65788715  0.28018794  0.00353538  1
  H  H339  1  0.53057628  0.37470091  0.00712378  1
  C  C340  1  0.55668589  0.29982331  0.92553478  1
  O  O341  1  0.51162717  0.28866611  0.81703378  1
  Zn  Zn342  1  0.55072813  0.45845323  0.83745629  1
  C  C343  1  0.50829082  0.31459481  0.87887657  1
  C  C344  1  0.56317502  0.33607636  0.98899715  1
  C  C345  1  0.57227507  0.28164693  0.52495328  1
  C  C346  1  0.68164772  0.27070087  0.50352106  1
  C  C347  1  0.59943595  0.25775874  0.89829372  1
  O  O348  1  0.54250538  0.29513336  0.64042085  1
  C  C349  1  0.52869115  0.27903938  0.57866903  1
  C  C350  1  0.62677949  0.25751938  0.54918592  1
  Zn  Zn351  1  0.81561175  0.60648592  0.25089163  1
  O  O352  1  0.77416175  0.68909593  0.30397022  1
  C  C353  1  0.68464120  0.55546106  0.36040853  1
  O  O354  1  0.89716145  0.65798640  0.28633244  1
  C  C355  1  0.82351220  0.64352371  0.04777537  1
  O  O356  1  0.53160047  0.68776473  0.21356638  1
  H  H357  1  0.51796059  0.54635487  0.19496677  1
  O  O358  1  0.59150229  0.54786017  0.25952589  1
  O  O359  1  0.77972306  0.58026211  0.14397720  1
  H  H360  1  0.57197491  0.60851961  0.46741532  1
  C  C361  1  0.51769131  0.69011473  0.08806002  1
  O  O362  1  0.69245163  0.67868300  0.25527050  1
  C  C363  1  0.57393038  0.70717605  0.07801272  1
  C  C364  1  0.80825558  0.57726554  0.08601462  1
  C  C365  1  0.72815269  0.55181545  0.40983657  1
  O  O366  1  0.81926604  0.52203891  0.05929797  1
  C  C367  1  0.63422542  0.74213588  0.36657108  1
  O  O368  1  0.53732797  0.58334202  0.34620927  1
  C  C369  1  0.80166172  0.70882461  0.07057115  1
  C  C370  1  0.61649486  0.59193103  0.45052555  1
  C  C371  1  0.93239008  0.68952260  0.24818858  1
  H  H372  1  0.77632421  0.71563375  0.11990142  1
  H  H373  1  0.76647978  0.73003037  0.43131035  1
  C  C374  1  0.72016804  0.69666895  0.30608727  1
  O  O375  1  0.97466748  0.66057605  0.22330242  1
  C  C376  1  0.69177140  0.73014602  0.37103631  1
  C  C377  1  0.62961164  0.57435584  0.37784572  1
  C  C378  1  0.58483357  0.56805488  0.32376200  1
  H  H379  1  0.61264639  0.73037688  0.31600709  1
  C  C380  1  0.78834202  0.52977086  0.38604744  1
  C  C381  1  0.72185114  0.74292875  0.43207313  1
  H  H382  1  0.60566725  0.70753447  0.12267474  1
  C  C383  1  0.71589519  0.56530607  0.48060680  1
  O  O384  1  0.79521229  0.52382433  0.31657784  1
  H  H385  1  0.69320263  0.54128069  0.30401896  1
  O  O386  1  0.82601380  0.52476441  0.42722155  1
  C  C387  1  0.59079413  0.71161371  0.00526393  1
  H  H388  1  0.52220962  0.59181693  0.90318902  1
  H  H389  1  0.98482026  0.60938932  0.97061997  1
  H  H390  1  0.75004935  0.56294805  0.52404422  1
  C  C391  1  0.51986538  0.55289503  0.85978944  1
  Zn  Zn392  1  0.61124189  0.62966869  0.57845941  1
  C  C393  1  0.55356457  0.56393120  0.78619190  1
  O  O394  1  0.64402246  0.63563384  0.80184202  1
  O  O395  1  0.53186199  0.54921575  0.70442507  1
  H  H396  1  0.56876014  0.71131260  0.89217848  1
  C  C397  1  0.88011988  0.69983452  0.95566210  1
  C  C398  1  0.60391004  0.60340093  0.79582504  1
  C  C399  1  0.94267511  0.69561718  0.94655605  1
  C  C400  1  0.65328035  0.53556295  0.56950835  1
  Zn  Zn401  1  0.91790422  0.73770177  0.84940722  1
  H  H402  1  0.87667781  0.58819378  0.97853204  1
  C  C403  1  0.55268976  0.70746647  0.94755254  1
  O  O404  1  0.97332925  0.62368520  0.92541208  1
  C  C405  1  0.66039336  0.57896009  0.50481643  1
  O  O406  1  0.97995690  0.73172939  0.97468413  1
  O  O407  1  0.66675888  0.50583917  0.61951059  1
  C  C408  1  0.86129864  0.64098894  0.99189782  1
  O  O409  1  0.69500330  0.72833696  0.96219607  1
  O  O410  1  0.50856054  0.54886506  0.51369849  1
  C  C411  1  0.64989636  0.72019783  0.98524994  1
  C  C412  1  0.79421594  0.83246976  0.06446999  1
  Zn  Zn413  1  0.75406843  0.95846301  0.12649330  1
  C  C414  1  0.89440573  0.89505021  0.17953280  1
  O  O415  1  0.79204324  0.89006632  0.31883042  1
  O  O416  1  0.51725073  0.76035340  0.36790490  1
  C  C417  1  0.81595157  0.76722478  0.03420345  1
  C  C418  1  0.60909014  0.77028671  0.42812068  1
  O  O419  1  0.76295403  0.83939779  0.11665694  1
  H  H420  1  0.87653329  0.94494851  0.15944105  1
  C  C421  1  0.86343935  0.86258814  0.23393068  1
  O  O422  1  0.94939198  0.94099749  0.05424112  1
  C  C423  1  0.81399333  0.90494284  0.26305606  1
  O  O424  1  0.52772273  0.96528160  0.41214903  1
  H  H425  1  0.57267062  0.98264595  0.30487018  1
  C  C426  1  0.93977369  0.86099926  0.15069539  1
  O  O427  1  0.79397253  0.95734983  0.22512144  1
  O  O428  1  0.80833677  0.89193956  0.03213146  1
  C  C429  1  0.97024805  0.89145883  0.08667331  1
  C  C430  1  0.87722265  0.79721668  0.25784411  1
  C  C431  1  0.95472520  0.79533552  0.17270633  1
  C  C432  1  0.54541640  0.77576823  0.42340404  1
  C  C433  1  0.69346828  0.77372799  0.48939448  1
  H  H434  1  0.85233089  0.77303736  0.30035263  1
  C  C435  1  0.63488712  0.78494980  0.49120841  1
  O  O436  1  0.52076495  0.97427003  0.00674701  1
  C  C437  1  0.92201695  0.76368513  0.22593801  1
  O  O438  1  0.51941347  0.79845442  0.47610507  1
  H  H439  1  0.98585607  0.76806388  0.14085583  1
  C  C440  1  0.57478944  0.97598766  0.43835135  1
  H  H441  1  0.60754717  0.80478097  0.53785236  1
  O  O442  1  0.86134116  0.81572669  0.92558653  1
  C  C443  1  0.62307124  0.86034996  0.79559286  1
  C  C444  1  0.98654344  0.93251804  0.68913531  1
  Zn  Zn445  1  0.87923328  0.91897175  0.96805385  1
  O  O446  1  0.90669884  0.78393076  0.74247601  1
  C  C447  1  0.71723394  0.92369197  0.81780702  1
  H  H448  1  0.85273474  0.85823345  0.65945387  1
  C  C449  1  0.57716387  0.94027508  0.90750581  1
  C  C450  1  0.53418980  0.81138608  0.76279741  1
  C  C451  1  0.81650575  0.98679985  0.61951669  1
  O  O452  1  0.74178469  0.88675427  0.77464711  1
  C  C453  1  0.85122600  0.76701113  0.96863852  1
  O  O454  1  0.69243035  0.81445609  0.60682622  1
  C  C455  1  0.50301166  0.97566427  0.70923506  1
  C  C456  1  0.56523537  0.85461103  0.81404529  1
  H  H457  1  0.64066818  0.82791878  0.75474344  1
  O  O458  1  0.98163582  0.77524051  0.67318944  1
  Zn  Zn459  1  0.71343805  0.89873742  0.66554442  1
  C  C460  1  0.88439500  0.90015160  0.66555037  1
  C  C461  1  0.94341547  0.80968490  0.70309274  1
  C  C462  1  0.93881134  0.88578739  0.68334804  1
  O  O463  1  0.93626020  0.90379283  0.88106532  1
  C  C464  1  0.53920684  0.88942125  0.87536673  1
  O  O465  1  0.54807204  0.77185879  0.71854243  1
  C  C466  1  0.65416727  0.90961162  0.82981845  1
  C  C467  1  0.55788873  0.98675448  0.69165512  1
  C  C468  1  0.63145424  0.95260699  0.88230916  1
  O  O469  1  0.77825524  0.94101508  0.61630119  1
  C  C470  1  0.98372279  0.93508967  0.88764962  1
  C  C471  1  0.87271331  0.97006363  0.64639743  1
  O  O472  1  0.73892748  0.97451201  0.85072004  1
  H  H473  1  0.58117404  0.95956671  0.64742396  1
  C  C474  1  0.56305485  0.98504539  0.97025533  1
  C  C475  1  0.72483893  0.78591214  0.55715025  1
  O  O476  1  0.58161417  0.96201451  0.50249657  1
  H  H477  1  0.89867693  0.99997207  0.83120559  1
  H  H478  1  0.65572871  0.99522578  0.90507531  1
  O  O479  1  0.77467590  0.77555610  0.56173935  1
