# generated using pymatgen
data_Zn4H12C24O13
_symmetry_space_group_name_H-M   'P 1'
_cell_length_a   12.78475031
_cell_length_b   22.66242691
_cell_length_c   21.91708374
_cell_angle_alpha   90.00000000
_cell_angle_beta   90.00000000
_cell_angle_gamma   90.00000000
_symmetry_Int_Tables_number   1
_chemical_formula_structural   Zn4H12C24O13
_chemical_formula_sum   'Zn32 H96 C192 O104'
_cell_volume   6350.11271014
_cell_formula_units_Z   8
loop_
 _symmetry_equiv_pos_site_id
 _symmetry_equiv_pos_as_xyz
  1  'x, y, z'
loop_
 _atom_site_type_symbol
 _atom_site_label
 _atom_site_symmetry_multiplicity
 _atom_site_fract_x
 _atom_site_fract_y
 _atom_site_fract_z
 _atom_site_occupancy
  C  C0  1  0.28308123  0.16906088  0.17291075  1
  O  O1  1  0.41471763  0.34734063  0.09234699  1
  C  C2  1  0.23722130  0.03877213  0.06989644  1
  C  C3  1  0.42401260  0.32104991  0.04385126  1
  H  H4  1  0.33548452  0.43992041  0.23994700  1
  C  C5  1  0.33615061  0.01135806  0.07314442  1
  C  C6  1  0.41293384  0.03530388  0.10983365  1
  C  C7  1  0.22199183  0.08903104  0.10357151  1
  O  O8  1  0.36363507  0.27764170  0.02891930  1
  C  C9  1  0.40302124  0.08898489  0.13891262  1
  H  H10  1  0.17408682  0.01399915  0.04421570  1
  O  O11  1  0.35780694  0.19278145  0.19778436  1
  O  O12  1  0.12563790  0.37400906  0.06377671  1
  O  O13  1  0.24463977  0.47932039  0.14450875  1
  O  O14  1  0.18969083  0.18873445  0.18102673  1
  C  C15  1  0.09361865  0.32125609  0.06621053  1
  Zn  Zn16  1  0.26094006  0.38959269  0.12391149  1
  C  C17  1  0.40991989  0.46151358  0.22500580  1
  H  H18  1  0.14392164  0.10573589  0.10317022  1
  O  O19  1  0.27676468  0.32614980  0.18312186  1
  C  C20  1  0.30450420  0.11543116  0.13535738  1
  Zn  Zn21  1  0.41668488  0.29091346  0.19393085  1
  O  O22  1  0.11709556  0.28506765  0.02394941  1
  Zn  Zn23  1  0.18488137  0.27513961  0.22841936  1
  C  C24  1  0.01604809  0.30274667  0.11370825  1
  H  H25  1  0.47191445  0.10656717  0.16163560  1
  H  H26  1  0.00009812  0.21764784  0.07276371  1
  H  H27  1  0.48540082  0.00959736  0.11790585  1
  H  H28  1  0.16449235  0.48457050  0.24112204  1
  H  H29  1  0.11980211  0.37153629  0.24267166  1
  C  C30  1  0.46530965  0.35312125  0.37872464  1
  O  O31  1  0.09736499  0.26682574  0.30476156  1
  C  C32  1  0.14880144  0.46130516  0.28399860  1
  C  C33  1  0.12246873  0.40085123  0.28485549  1
  C  C34  1  0.10640080  0.37414371  0.34102671  1
  C  C35  1  0.39324565  0.11948410  0.40274655  1
  C  C36  1  0.29755859  0.11843232  0.37016320  1
  C  C37  1  0.28372931  0.07244699  0.32119364  1
  H  H38  1  0.15060886  0.15229473  0.34926320  1
  C  C39  1  0.13588941  0.46498899  0.39434013  1
  O  O40  1  0.36338430  0.04317374  0.30372514  1
  C  C41  1  0.43822079  0.45093124  0.45718400  1
  C  C42  1  0.38842058  0.39603715  0.36396136  1
  C  C43  1  0.21456967  0.15775825  0.38066116  1
  O  O44  1  0.20031352  0.06450237  0.29259385  1
  O  O45  1  0.04419468  0.29348160  0.39358935  1
  H  H46  1  0.08869674  0.38252734  0.44076576  1
  C  C47  1  0.10607233  0.40610533  0.39674016  1
  H  H48  1  0.30739910  0.47308882  0.40490869  1
  C  C49  1  0.37118233  0.44034899  0.40783313  1
  C  C50  1  0.40172909  0.15788703  0.45052285  1
  H  H51  1  0.33695083  0.38664814  0.32505477  1
  C  C52  1  0.08089769  0.30745438  0.34559971  1
  O  O53  1  0.43095763  0.30066131  0.29052660  1
  C  C54  1  0.22820116  0.19848219  0.42594252  1
  C  C55  1  0.32147206  0.19921552  0.46112824  1
  H  H56  1  0.16285958  0.22751247  0.43736244  1
  H  H57  1  0.45559345  0.08722974  0.39356638  1
  C  C58  1  0.49254879  0.30919193  0.33294104  1
  H  H59  1  0.13203448  0.49253330  0.43392991  1
  C  C60  1  0.15658892  0.49139751  0.33877158  1
  H  H61  1  0.47452146  0.15905718  0.47617254  1
  C  C62  1  0.10734556  0.26676785  0.64981787  1
  C  C63  1  0.33514620  0.24350895  0.50952583  1
  H  H64  1  0.45099173  0.08791492  0.66477648  1
  C  C65  1  0.44911510  0.07624682  0.71342093  1
  O  O66  1  0.21372084  0.43297483  0.60218068  1
  O  O67  1  0.33459110  0.45648549  0.67042130  1
  C  C68  1  0.26179395  0.03040454  0.70303716  1
  O  O69  1  0.44148536  0.35834305  0.61087864  1
  O  O70  1  0.27429481  0.28724280  0.51961115  1
  H  H71  1  0.05081038  0.38317542  0.64430962  1
  O  O72  1  0.18582978  0.29910754  0.65658623  1
  H  H73  1  0.23981468  0.21971571  0.71108867  1
  Zn  Zn74  1  0.28773713  0.34553227  0.59341728  1
  O  O75  1  0.10657184  0.21209549  0.65988186  1
  O  O76  1  0.40980594  0.23368502  0.54531525  1
  C  C77  1  0.40782310  0.22285974  0.71598941  1
  O  O78  1  0.25252989  0.03853474  0.64690915  1
  C  C79  1  0.26056009  0.47042433  0.63543292  1
  H  H80  1  0.40589187  0.22503796  0.66506965  1
  C  C81  1  0.35818143  0.04885330  0.73931367  1
  O  O82  1  0.48570705  0.49640475  0.54910199  1
  C  C83  1  0.42644559  0.49757962  0.50215968  1
  C  C84  1  0.31075093  0.21772793  0.74206900  1
  O  O85  1  0.19212638  0.00227315  0.73167400  1
  C  C86  1  0.00656118  0.29455911  0.63027533  1
  Zn  Zn87  1  0.24314832  0.26775004  0.96166745  1
  H  H88  1  0.43718804  0.04828788  0.88929562  1
  C  C89  1  0.43574481  0.05614567  0.84029679  1
  H  H90  1  0.43997632  0.27198711  0.93167969  1
  H  H91  1  0.39140148  0.19862161  0.88895328  1
  C  C92  1  0.39896778  0.20613746  0.83946630  1
  C  C93  1  0.30501633  0.21327226  0.80582321  1
  O  O94  1  0.27787443  0.33837394  0.91071224  1
  C  C95  1  0.22008205  0.37505587  0.88153337  1
  C  C96  1  0.49134508  0.30969460  0.94122861  1
  O  O97  1  0.11862317  0.21942810  0.81775140  1
  C  C98  1  0.20621055  0.20969763  0.84080652  1
  O  O99  1  0.17009457  0.35925666  0.83494655  1
  O  O100  1  0.21505629  0.20198789  0.89729927  1
  H  H101  1  0.28919850  0.01290206  0.82217310  1
  C  C102  1  0.35428142  0.03883226  0.80292278  1
  C  C103  1  0.20116930  0.43460187  0.90749644  1
  H  H104  1  0.11953545  0.45918247  0.82850966  1
  C  C105  1  0.23584928  0.45076572  0.96724874  1
  C  C106  1  0.14689810  0.47587356  0.87269008  1
  O  O107  1  0.02464493  0.03803403  0.99027741  1
  C  C108  1  0.49580668  0.21464444  0.81335201  1
  Zn  Zn109  1  0.02887930  0.30772951  0.83048532  1
  H  H110  1  0.29023797  0.42231196  0.99675653  1
  C  C111  1  0.49126072  0.34486028  0.99443301  1
  O  O112  1  0.08326198  0.59621592  0.04189439  1
  H  H113  1  0.38927365  0.90408593  0.11542502  1
  O  O114  1  0.30912874  0.56429702  0.11418334  1
  C  C115  1  0.34162927  0.82385643  0.16491988  1
  C  C116  1  0.46803472  0.72879010  0.01998368  1
  C  C117  1  0.21947552  0.89765710  0.23373502  1
  C  C118  1  0.36751970  0.70694674  0.00939501  1
  H  H119  1  0.39661761  0.79376944  0.14024224  1
  C  C120  1  0.27681476  0.92287304  0.18594447  1
  Zn  Zn121  1  0.19790250  0.98773847  0.23168930  1
  O  O122  1  0.28765353  0.79751518  0.03279938  1
  C  C123  1  0.27332776  0.73262453  0.21507675  1
  Zn  Zn124  1  0.20576702  0.64190575  0.11173981  1
  C  C125  1  0.33882835  0.88410054  0.14977848  1
  O  O126  1  0.30649220  0.69914420  0.17526765  1
  C  C127  1  0.41135750  0.50285829  0.17846304  1
  O  O128  1  0.18228990  0.71983752  0.03085602  1
  C  C129  1  0.27613192  0.79844135  0.20944792  1
  Zn  Zn130  1  0.02456506  0.75868845  0.18029400  1
  C  C131  1  0.27245273  0.74337819  0.02247548  1
  O  O132  1  0.07932493  0.67716067  0.15517820  1
  O  O133  1  0.06711634  0.89482628  0.07799720  1
  Zn  Zn134  1  0.09429944  0.64382543  0.24096966  1
  Zn  Zn135  1  0.19099723  0.87332187  0.02311046  1
  C  C136  1  0.31448406  0.51738833  0.14398405  1
  H  H137  1  0.21187635  0.51094450  0.03886033  1
  H  H138  1  0.48238543  0.77412571  0.03173899  1
  O  O139  1  0.46123170  0.94391694  0.03297473  1
  C  C140  1  0.36973378  0.95908077  0.03401342  1
  C  C141  1  0.22024226  0.83751612  0.24729586  1
  H  H142  1  0.45647498  0.79653717  0.23598631  1
  Zn  Zn143  1  0.32859803  0.71042494  0.35061648  1
  C  C144  1  0.08775981  0.84294044  0.37016760  1
  O  O145  1  0.35966292  0.69914029  0.43958937  1
  O  O146  1  0.23579132  0.71341179  0.26543891  1
  C  C147  1  0.19157444  0.83572308  0.46078775  1
  H  H148  1  0.17685197  0.82134890  0.28829255  1
  C  C149  1  0.17364808  0.77310890  0.46721912  1
  H  H150  1  0.12274725  0.69807480  0.41509281  1
  C  C151  1  0.03688785  0.75145396  0.31730897  1
  H  H152  1  0.16107599  0.91716396  0.41404837  1
  C  C153  1  0.08300782  0.78125403  0.37315244  1
  O  O154  1  0.21309241  0.58157010  0.39195284  1
  O  O155  1  0.39047456  0.80260337  0.34555160  1
  O  O156  1  0.00836723  0.78545530  0.27441906  1
  C  C157  1  0.19651599  0.55561538  0.34239853  1
  C  C158  1  0.12310837  0.74582789  0.42005300  1
  O  O159  1  0.44056132  0.64976855  0.32298003  1
  H  H160  1  0.05192396  0.86594777  0.32946226  1
  Zn  Zn161  1  0.42991729  0.76018615  0.48470231  1
  O  O162  1  0.20727585  0.57917810  0.29250683  1
  C  C163  1  0.14500673  0.87003005  0.41465725  1
  Zn  Zn164  1  0.35129553  0.61445389  0.44018978  1
  C  C165  1  0.48820023  0.80375579  0.35751632  1
  O  O166  1  0.02376899  0.69619877  0.31737489  1
  O  O167  1  0.36155803  0.53913869  0.49834525  1
  C  C168  1  0.30111201  0.57373995  0.66056617  1
  O  O169  1  0.28300589  0.91390716  0.50970282  1
  H  H170  1  0.10936687  0.52708240  0.56406247  1
  O  O171  1  0.03741037  0.97759292  0.57013748  1
  C  C172  1  0.14225859  0.61713174  0.58729334  1
  Zn  Zn173  1  0.18681097  0.90358365  0.72501427  1
  Zn  Zn174  1  0.32081486  0.82299081  0.64081777  1
  O  O175  1  0.20531337  0.88501880  0.63762639  1
  C  C176  1  0.15693436  0.55697175  0.59119203  1
  C  C177  1  0.17556726  0.71933052  0.62819092  1
  H  H178  1  0.34233236  0.66243272  0.68386299  1
  O  O179  1  0.11160552  0.74348288  0.59081533  1
  O  O180  1  0.32052772  0.82137862  0.53718681  1
  Zn  Zn181  1  0.20432480  0.96178034  0.58900779  1
  O  O182  1  0.22850958  0.74985327  0.66438354  1
  O  O183  1  0.40875785  0.87194859  0.71507005  1
  H  H184  1  0.36673557  0.55107388  0.68809200  1
  C  C185  1  0.23698780  0.53454497  0.62795029  1
  H  H186  1  0.07057831  0.63664643  0.56321573  1
  C  C187  1  0.20072504  0.65570543  0.62448069  1
  C  C188  1  0.28810981  0.63442599  0.65816332  1
  Zn  Zn189  1  0.08112976  0.83930029  0.60424292  1
  O  O190  1  0.48232515  0.78747361  0.63669992  1
  C  C191  1  0.01935445  0.82084794  0.73486677  1
  H  H192  1  0.48397897  0.72105912  0.73326157  1
  H  H193  1  0.20871124  0.74856541  0.50575527  1
  C  C194  1  0.26593786  0.86006733  0.50539666  1
  O  O195  1  0.30093396  0.94005340  0.99818946  1
  O  O196  1  0.31193156  0.89897270  0.79385846  1
  O  O197  1  0.10610147  0.87656140  0.93873901  1
  C  C198  1  0.39756231  0.88265328  0.77136339  1
  C  C199  1  0.19609847  0.50319231  0.98970156  1
  H  H200  1  0.07973736  0.56516959  0.86295421  1
  H  H201  1  0.41462352  0.56353183  0.96571285  1
  C  C202  1  0.13318581  0.54228286  0.95518400  1
  H  H203  1  0.42689246  0.90899340  0.89282359  1
  Zn  Zn204  1  0.03868562  0.73408261  0.98196991  1
  C  C205  1  0.11441291  0.53141343  0.89311127  1
  C  C206  1  0.42782479  0.61037676  0.98054502  1
  O  O207  1  0.03747925  0.63230452  0.95224489  1
  H  H208  1  0.08229498  0.74021358  0.80866469  1
  C  C209  1  0.02649693  0.85414842  0.91440075  1
  H  H210  1  0.02734463  0.97647925  0.90437726  1
  C  C211  1  0.48225312  0.85956176  0.81139946  1
  H  H212  1  0.49285012  0.62862500  0.78923947  1
  C  C213  1  0.48320437  0.87718409  0.87435601  1
  C  C214  1  0.08408890  0.59514021  0.98332612  1
  C  C215  1  0.00313484  0.72712518  0.79208773  1
  H  H216  1  0.26639960  0.63326000  0.98821157  1
  C  C217  1  0.34771885  0.64802505  0.99184108  1
  O  O218  1  0.09877284  0.83771685  0.76678480  1
  C  C219  1  0.67062892  0.24860654  0.04406677  1
  H  H220  1  0.82461142  0.05790874  0.09843950  1
  C  C221  1  0.66105837  0.03532812  0.16963474  1
  C  C222  1  0.97768161  0.34005203  0.16143388  1
  C  C223  1  0.70189411  0.28746159  0.08933310  1
  C  C224  1  0.78815379  0.32555515  0.07856535  1
  H  H225  1  0.60898421  0.21496054  0.04857124  1
  O  O226  1  0.67812532  0.32710302  0.18689453  1
  C  C227  1  0.64767344  0.29030625  0.14978251  1
  C  C228  1  0.92444348  0.22192570  0.16199475  1
  O  O229  1  0.78368681  0.47305945  0.22334510  1
  C  C230  1  0.92147206  0.31497094  0.20831374  1
  C  C231  1  0.98123406  0.24463198  0.11198624  1
  H  H232  1  0.90823861  0.17369963  0.16005593  1
  H  H233  1  0.81729067  0.35355924  0.11735609  1
  C  C234  1  0.89027653  0.25561614  0.21036597  1
  Zn  Zn235  1  0.64431482  0.16867387  0.19978193  1
  O  O236  1  0.65732102  0.08496823  0.14729582  1
  O  O237  1  0.59142866  0.01631250  0.20541326  1
  H  H238  1  0.91103557  0.34969116  0.01612496  1
  C  C239  1  0.83588921  0.32247386  0.02314761  1
  H  H240  1  0.55042807  0.42038294  0.05257694  1
  O  O241  1  0.95594692  0.10487357  0.05983531  1
  O  O242  1  0.57178643  0.25344072  0.15989846  1
  C  C243  1  0.59578206  0.47459232  0.23253458  1
  C  C244  1  0.70676266  0.45557460  0.24999751  1
  C  C245  1  0.98979433  0.07019492  0.02607590  1
  C  C246  1  0.82738251  0.01234853  0.11672846  1
  H  H247  1  0.99387340  0.38847559  0.15614252  1
  C  C248  1  0.54982857  0.39458442  0.00752851  1
  O  O249  1  0.59592143  0.03869285  0.36876668  1
  C  C250  1  0.73890077  0.03821659  0.43297079  1
  Zn  Zn251  1  0.61025604  0.18864917  0.34123691  1
  C  C252  1  0.52356610  0.35774813  0.43274999  1
  O  O253  1  0.58161781  0.27999139  0.33149603  1
  O  O254  1  0.62983484  0.12373327  0.41069821  1
  H  H255  1  0.58173711  0.32349883  0.44530800  1
  C  C256  1  0.81978953  0.06947335  0.46224551  1
  Zn  Zn257  1  0.71605881  0.33084713  0.28950910  1
  Zn  Zn258  1  0.51389523  0.06405074  0.28717959  1
  O  O259  1  0.56774770  0.14318963  0.27259999  1
  H  H260  1  0.81564545  0.11820111  0.46397089  1
  O  O261  1  0.80876561  0.25798005  0.30802070  1
  H  H262  1  0.50414847  0.41919740  0.29376763  1
  C  C263  1  0.65435420  0.07057799  0.40102815  1
  C  C264  1  0.51172752  0.40665275  0.46963544  1
  O  O265  1  0.71194432  0.41905405  0.29704198  1
  C  C266  1  0.90062514  0.04219933  0.49335641  1
  C  C267  1  0.82687676  0.22593369  0.26104830  1
  O  O268  1  0.78990543  0.17489628  0.25392886  1
  H  H269  1  0.90742338  0.34050659  0.25076877  1
  C  C270  1  0.50308947  0.44937290  0.25520671  1
  C  C271  1  0.92768772  0.25415699  0.61152476  1
  C  C272  1  0.80940533  0.33798327  0.59733066  1
  H  H273  1  0.59890684  0.11798910  0.73455615  1
  C  C274  1  0.83034760  0.27674132  0.59622857  1
  H  H275  1  0.76149000  0.24709306  0.58661076  1
  C  C276  1  0.70133181  0.35749685  0.57578641  1
  O  O277  1  0.55762215  0.47404137  0.71188321  1
  O  O278  1  0.64782910  0.31566284  0.55526732  1
  O  O279  1  0.61220415  0.22662126  0.66313674  1
  C  C280  1  0.88656234  0.37732748  0.61436603  1
  C  C281  1  0.60676041  0.22704991  0.72025312  1
  H  H282  1  0.94137556  0.20655658  0.61692871  1
  O  O283  1  0.66488724  0.40750433  0.58187627  1
  H  H284  1  0.86314120  0.42265005  0.61434323  1
  C  C285  1  0.98478100  0.35456993  0.63084452  1
  Zn  Zn286  1  0.51742794  0.28070119  0.60261685  1
  Zn  Zn287  1  0.99241215  0.19486426  0.73922645  1
  C  C288  1  0.50307916  0.22291369  0.74966314  1
  Zn  Zn289  1  0.50280406  0.43690145  0.62958895  1
  H  H290  1  0.55899799  0.41910485  0.51256185  1
  H  H291  1  0.96049943  0.06894552  0.51674159  1
  H  H292  1  0.57187692  0.30220569  0.85893186  1
  C  C293  1  0.62450690  0.37990289  0.90668235  1
  C  C294  1  0.71566502  0.24563653  0.98693100  1
  O  O295  1  0.93790274  0.31239899  0.91113433  1
  O  O296  1  0.71066662  0.36971377  0.81004357  1
  O  O297  1  0.73635486  0.45042153  0.86576264  1
  C  C298  1  0.56882781  0.32703984  0.89975507  1
  Zn  Zn299  1  0.79590212  0.29244965  0.77982458  1
  H  H300  1  0.66690712  0.45128602  0.96257911  1
  C  C301  1  0.69842467  0.39999326  0.85809501  1
  O  O302  1  0.69733816  0.12195739  0.84104439  1
  H  H303  1  0.68840236  0.21779796  0.94710680  1
  O  O304  1  0.94265008  0.27522128  0.76527701  1
  C  C305  1  0.85540377  0.28301181  0.91627467  1
  O  O306  1  0.81467700  0.25670272  0.87338129  1
  H  H307  1  0.56569897  0.21386355  0.83911123  1
  O  O308  1  0.59059873  0.09752294  0.91318032  1
  C  C309  1  0.61850837  0.41219202  0.96148797  1
  H  H310  1  0.90548183  0.03438937  0.84393994  1
  C  C311  1  0.61102934  0.10271900  0.85814900  1
  C  C312  1  0.52660996  0.08187190  0.81466857  1
  Zn  Zn313  1  0.78765240  0.06364446  0.77342798  1
  C  C314  1  0.80371385  0.28216025  0.97733856  1
  O  O315  1  0.90242463  0.12924112  0.77686370  1
  H  H316  1  0.86068211  0.15286196  0.80341418  1
  O  O317  1  0.68671773  0.22381048  0.75395942  1
  C  C318  1  0.53155839  0.09215171  0.75175281  1
  C  C319  1  0.77819785  0.74313066  0.16826954  1
  C  C320  1  0.82073641  0.89159004  0.15983164  1
  C  C321  1  0.74977484  0.99257472  0.15746263  1
  C  C322  1  0.90878176  0.91377394  0.12724937  1
  C  C323  1  0.60704330  0.77198715  0.20280647  1
  H  H324  1  0.67093498  0.53506772  0.16819214  1
  C  C325  1  0.70957311  0.75771658  0.22141819  1
  C  C326  1  0.74446410  0.93281987  0.17621100  1
  H  H327  1  0.81407683  0.84596517  0.16891315  1
  O  O328  1  0.96361074  0.58165374  0.22660821  1
  O  O329  1  0.91009348  0.70918098  0.01853728  1
  O  O330  1  0.74125623  0.74962098  0.11549464  1
  Zn  Zn331  1  0.96107361  0.66119709  0.09168009  1
  O  O332  1  0.87461251  0.59814223  0.14229017  1
  H  H333  1  0.57892106  0.77148735  0.15531685  1
  Zn  Zn334  1  0.84053269  0.78265819  0.04187788  1
  H  H335  1  0.70313077  0.65803201  0.17001712  1
  O  O336  1  0.86773083  0.72339612  0.18130207  1
  H  H337  1  0.68073469  0.91121654  0.19970387  1
  C  C338  1  0.88130652  0.59263458  0.19967477  1
  C  C339  1  0.90897099  0.97261675  0.10533660  1
  C  C340  1  0.70260589  0.63771766  0.21453421  1
  H  H341  1  0.54063305  0.67186568  0.23562742  1
  C  C342  1  0.59583524  0.51594650  0.18489098  1
  H  H343  1  0.97582744  0.98497745  0.07395861  1
  C  C344  1  0.98791869  0.87274980  0.10297101  1
  C  C345  1  0.50185016  0.53349859  0.15686212  1
  O  O346  1  0.96662269  0.81931355  0.11036960  1
  H  H347  1  0.50197332  0.56563924  0.11811269  1
  C  C348  1  0.54956451  0.68842764  0.01358059  1
  H  H349  1  0.63000144  0.70225109  0.02533272  1
  C  C350  1  0.78360368  0.60401207  0.23680292  1
  C  C351  1  0.53590245  0.78886543  0.24795635  1
  C  C352  1  0.61239524  0.64419047  0.24912918  1
  H  H353  1  0.86225329  0.55678386  0.31289067  1
  C  C354  1  0.78979280  0.57865167  0.29511203  1
  C  C355  1  0.66810271  0.76923619  0.32602298  1
  H  H356  1  0.69192834  0.95179149  0.40085943  1
  H  H357  1  0.81809157  0.73899162  0.29434110  1
  H  H358  1  0.68583605  0.76531813  0.37598570  1
  O  O359  1  0.51691260  0.81050512  0.41112924  1
  C  C360  1  0.74047443  0.75349117  0.28196780  1
  O  O361  1  0.51026907  0.59944476  0.39642806  1
  H  H362  1  0.81954090  0.89881311  0.46610525  1
  H  H363  1  0.69487853  0.56900081  0.37893362  1
  C  C364  1  0.69963302  0.58775276  0.33090606  1
  C  C365  1  0.56767875  0.78891209  0.30944337  1
  C  C366  1  0.61335116  0.61889227  0.30818503  1
  C  C367  1  0.82662797  0.94683013  0.46176730  1
  C  C368  1  0.51827990  0.62334210  0.34533211  1
  C  C369  1  0.74964424  0.97563681  0.42960181  1
  C  C370  1  0.90165196  0.97963399  0.49507349  1
  C  C371  1  0.50450812  0.68130675  0.71030126  1
  C  C372  1  0.57186278  0.63870473  0.61894203  1
  C  C373  1  0.53626689  0.52162671  0.73968844  1
  H  H374  1  0.82466362  0.78094409  0.68603072  1
  H  H375  1  0.59902611  0.64120873  0.57259225  1
  H  H376  1  0.57097178  0.54424140  0.61526880  1
  O  O377  1  0.99691150  0.84912710  0.68856198  1
  C  C378  1  0.53700176  0.57754812  0.70700698  1
  C  C379  1  0.56564001  0.58298502  0.64583123  1
  C  C380  1  0.85624629  0.75351651  0.72325159  1
  H  H381  1  0.55028837  0.81578050  0.73442772  1
  O  O382  1  0.67822398  0.95344648  0.72344930  1
  H  H383  1  0.71814491  0.69606642  0.73561863  1
  O  O384  1  0.97103288  0.89456623  0.54547286  1
  C  C385  1  0.52013803  0.74295356  0.61049806  1
  O  O386  1  0.54502508  0.74132848  0.55491079  1
  C  C387  1  0.53291663  0.68870351  0.64846012  1
  C  C388  1  0.51151743  0.62975298  0.74121913  1
  C  C389  1  0.97479405  0.94896949  0.53696811  1
  C  C390  1  0.80160328  0.70456295  0.74573953  1
  H  H391  1  0.67850865  0.76468335  0.80229745  1
  C  C392  1  0.81927641  0.95370068  0.80290479  1
  O  O393  1  0.60330970  0.54253338  0.95944952  1
  C  C394  1  0.74242447  0.97361261  0.75541411  1
  C  C395  1  0.94921589  0.67736498  0.81170592  1
  H  H396  1  0.74649317  0.86898419  0.77979258  1
  C  C397  1  0.80873817  0.89204288  0.80533830  1
  Zn  Zn398  1  0.83943925  0.65895793  0.95399670  1
  C  C399  1  0.87729877  0.86373890  0.84427300  1
  C  C400  1  0.63119727  0.79801919  0.82212843  1
  C  C401  1  0.84536300  0.66831044  0.79062133  1
  O  O402  1  0.71683670  0.79053288  0.98002202  1
  H  H403  1  0.87268124  0.81725785  0.85186357  1
  Zn  Zn404  1  0.64677336  0.52852333  0.86340943  1
  C  C405  1  0.97007872  0.95352273  0.87618031  1
  C  C406  1  0.78992003  0.61790801  0.82188392  1
  O  O407  1  0.82090396  0.59798531  0.87421393  1
  O  O408  1  0.70669906  0.59968514  0.79963418  1
  O  O409  1  0.74830756  0.73288724  0.90414602  1
  C  C410  1  0.90224575  0.98445568  0.83949790  1
  C  C411  1  0.70066480  0.77589536  0.92582776  1
  C  C412  1  0.62639126  0.80937324  0.88490110  1
  H  H413  1  0.98892002  0.64740765  0.84367492  1
  O  O414  1  0.52133773  0.52236005  0.79762202  1
  C  C415  1  0.95876562  0.89034513  0.87806968  1
  C  C416  1  0.55679559  0.85065609  0.91100475  1
  O  O417  1  0.99865977  0.80017453  0.92104278  1
  H  H418  1  0.56058475  0.85878046  0.96021190  1
  C  C419  1  0.55693160  0.82443187  0.78346198  1
  C  C420  1  0.62163714  0.59013718  0.98590017  1
  O  O421  1  0.71224063  0.60498772  0.99891644  1
  C  C422  1  0.52971435  0.63176857  0.99186120  1
  C  C423  1  0.95477330  0.76724314  0.75109391  1
