# generated using pymatgen
data_Zn4H12C24O13
_symmetry_space_group_name_H-M   'P 1'
_cell_length_a   26.89292681
_cell_length_b   26.20226806
_cell_length_c   26.38636386
_cell_angle_alpha   90.00000000
_cell_angle_beta   90.00000000
_cell_angle_gamma   90.00000000
_symmetry_Int_Tables_number   1
_chemical_formula_structural   Zn4H12C24O13
_chemical_formula_sum   'Zn32 H96 C192 O104'
_cell_volume   18593.30109559
_cell_formula_units_Z   8
loop_
 _symmetry_equiv_pos_site_id
 _symmetry_equiv_pos_as_xyz
  1  'x, y, z'
loop_
 _atom_site_type_symbol
 _atom_site_label
 _atom_site_symmetry_multiplicity
 _atom_site_fract_x
 _atom_site_fract_y
 _atom_site_fract_z
 _atom_site_occupancy
  O  O0  1  0.23590773  0.14068830  0.21901523  1
  H  H1  1  0.21357396  0.04672242  0.17092894  1
  C  C2  1  0.23208481  0.02556252  0.20424419  1
  O  O3  1  0.24847359  0.23202930  0.14297644  1
  C  C4  1  0.25385835  0.23376782  0.04332533  1
  H  H5  1  0.27143557  0.20290455  0.06658249  1
  Zn  Zn6  1  0.27193441  0.21259177  0.21761931  1
  H  H7  1  0.43740063  0.19206196  0.18810586  1
  C  C8  1  0.45944900  0.20949517  0.21806761  1
  O  O9  1  0.35599887  0.22199632  0.21927768  1
  C  C10  1  0.37957571  0.24675909  0.24980809  1
  C  C11  1  0.01941033  0.26914226  0.24079647  1
  C  C12  1  0.22959228  0.27368087  0.07005297  1
  O  O13  1  0.20782432  0.30234113  0.15411627  1
  H  H14  1  0.04075457  0.30336436  0.23044462  1
  C  C15  1  0.22943944  0.27204446  0.12545739  1
  H  H16  1  0.19413048  0.34941770  0.06660807  1
  Zn  Zn17  1  0.18906091  0.29961667  0.23398800  1
  C  C18  1  0.21136104  0.31790820  0.04456224  1
  Zn  Zn19  1  0.20024309  0.20779759  0.30997635  1
  H  H20  1  0.03473280  0.15009347  0.29330017  1
  H  H21  1  0.19488397  0.19947399  0.47655812  1
  C  C22  1  0.01669850  0.18191463  0.27413761  1
  O  O23  1  0.12487828  0.20443173  0.29324996  1
  O  O24  1  0.23814515  0.12666433  0.29989258  1
  C  C25  1  0.23774886  0.10898221  0.25585801  1
  C  C26  1  0.24003455  0.05220067  0.25104310  1
  C  C27  1  0.04406512  0.22878011  0.26567249  1
  C  C28  1  0.09715468  0.23887447  0.27343764  1
  C  C29  1  0.22406176  0.22009649  0.49542372  1
  O  O30  1  0.21538244  0.22787452  0.39089238  1
  C  C31  1  0.25914202  0.02595630  0.29275555  1
  H  H32  1  0.26775512  0.04436975  0.33016391  1
  C  C33  1  0.43515268  0.24235751  0.25166663  1
  O  O34  1  0.23813875  0.25447988  0.26908399  1
  O  O35  1  0.19052743  0.37694980  0.27326169  1
  C  C36  1  0.24812105  0.25367996  0.41131912  1
  C  C37  1  0.19055375  0.48082710  0.27139838  1
  H  H38  1  0.15459376  0.45714603  0.27440396  1
  C  C39  1  0.23266496  0.39644786  0.26906680  1
  C  C40  1  0.23462910  0.45306721  0.26887191  1
  O  O41  1  0.11469148  0.28127476  0.26122961  1
  C  C42  1  0.28039843  0.47753649  0.26405032  1
  C  C43  1  0.25558178  0.25282379  0.46678653  1
  C  C44  1  0.46157528  0.26978032  0.28764676  1
  O  O45  1  0.35819092  0.27481480  0.28347264  1
  C  C46  1  0.29307839  0.28301804  0.48904981  1
  O  O47  1  0.27407710  0.28576675  0.38605642  1
  O  O48  1  0.27139744  0.37153513  0.26725846  1
  H  H49  1  0.31558610  0.30921069  0.46645172  1
  Zn  Zn50  1  0.28667494  0.29930272  0.30578502  1
  H  H51  1  0.44306953  0.29562927  0.31345952  1
  H  H52  1  0.31333960  0.45404374  0.26455378  1
  H  H53  1  0.20308212  0.19658839  0.57191407  1
  Zn  Zn54  1  0.21490375  0.22842660  0.72502231  1
  O  O55  1  0.23964988  0.22589800  0.65070492  1
  C  C56  1  0.22801575  0.21963133  0.54783991  1
  C  C57  1  0.27356838  0.24924983  0.62737012  1
  C  C58  1  0.26611981  0.24866225  0.56932951  1
  H  H59  1  0.05889791  0.25143925  0.67593276  1
  C  C60  1  0.03779084  0.26037852  0.71002459  1
  O  O61  1  0.14499121  0.27639359  0.72367378  1
  H  H62  1  0.46117633  0.29589406  0.69303711  1
  O  O63  1  0.37922445  0.30887973  0.74360934  1
  H  H64  1  0.27242990  0.47603571  0.68236667  1
  C  C65  1  0.26532823  0.49906837  0.71680603  1
  O  O66  1  0.27296992  0.39103556  0.72127918  1
  C  C67  1  0.47948356  0.27763637  0.72558438  1
  Zn  Zn68  1  0.30439867  0.31767362  0.71974317  1
  C  C69  1  0.29749771  0.28149566  0.54151498  1
  H  H70  1  0.32415720  0.30621485  0.55824410  1
  O  O71  1  0.30843082  0.27428277  0.64649106  1
  H  H72  1  0.18014523  0.07107916  0.76622247  1
  O  O73  1  0.21659187  0.15448379  0.76295144  1
  C  C74  1  0.21526735  0.04840521  0.76468696  1
  C  C75  1  0.25755637  0.13400090  0.77006261  1
  C  C76  1  0.26081948  0.07494421  0.76561427  1
  Zn  Zn77  1  0.29954808  0.24069691  0.81656372  1
  O  O78  1  0.26867585  0.23730234  0.89177454  1
  H  H79  1  0.45883577  0.22468089  0.84207673  1
  C  C80  1  0.25803285  0.23707960  0.99156979  1
  H  H81  1  0.27679033  0.20811510  0.96824654  1
  O  O82  1  0.29505596  0.15668590  0.78235058  1
  C  C83  1  0.47791779  0.23400408  0.80536875  1
  C  C84  1  0.30405605  0.04595177  0.75980604  1
  H  H85  1  0.33841786  0.06700232  0.76077774  1
  C  C86  1  0.21764737  0.32249284  0.99339756  1
  H  H87  1  0.20276539  0.35570640  0.97336058  1
  O  O88  1  0.13434726  0.31524800  0.79530843  1
  C  C89  1  0.03405533  0.28444351  0.79940227  1
  H  H90  1  0.05399288  0.29771903  0.83369623  1
  Zn  Zn91  1  0.21160350  0.31490654  0.80489119  1
  C  C92  1  0.06214546  0.27476157  0.75529136  1
  C  C93  1  0.11592922  0.28954246  0.75819722  1
  O  O94  1  0.22673636  0.31098139  0.88459951  1
  C  C95  1  0.23907080  0.28163082  0.96644923  1
  C  C96  1  0.24538968  0.27483381  0.91149471  1
  H  H97  1  0.24022431  0.47559971  0.84202545  1
  C  C98  1  0.24853497  0.49833021  0.80695838  1
  C  C99  1  0.25906488  0.47128766  0.76325959  1
  O  O100  1  0.25513847  0.38748065  0.80062600  1
  C  C101  1  0.26377854  0.41457773  0.76227723  1
  C  C102  1  0.40051086  0.27859999  0.77351781  1
  O  O103  1  0.25912189  0.27466178  0.76491615  1
  O  O104  1  0.37723601  0.26228093  0.81305270  1
  C  C105  1  0.45272794  0.26403636  0.76856236  1
  C  C106  1  0.24226585  0.73938227  0.11207508  1
  O  O107  1  0.27850320  0.71809259  0.13280178  1
  Zn  Zn108  1  0.29179205  0.70109519  0.20811270  1
  H  H109  1  0.32305274  0.73749675  0.05381479  1
  H  H110  1  0.45110007  0.66397998  0.19691099  1
  C  C111  1  0.47354661  0.69724318  0.20867627  1
  O  O112  1  0.36996839  0.69953519  0.22817027  1
  C  C113  1  0.44812783  0.73824833  0.23088543  1
  C  C114  1  0.39330346  0.73777532  0.24123781  1
  C  C115  1  0.29038324  0.74814631  0.03138970  1
  C  C116  1  0.23677633  0.97335312  0.20320916  1
  C  C117  1  0.24389925  0.75349288  0.05634058  1
  O  O118  1  0.23996610  0.86713989  0.20767994  1
  C  C119  1  0.19992779  0.77255789  0.03411257  1
  O  O120  1  0.20414041  0.75094490  0.13652901  1
  H  H121  1  0.16716015  0.77338432  0.05685775  1
  Zn  Zn122  1  0.20376341  0.79574563  0.20463962  1
  H  H123  1  0.04201400  0.80531546  0.18348250  1
  C  C124  1  0.02241673  0.78174385  0.21226638  1
  O  O125  1  0.12160271  0.79139124  0.22359326  1
  H  H126  1  0.22781072  0.95401930  0.16674491  1
  C  C127  1  0.24941644  0.94683230  0.24777667  1
  O  O128  1  0.24841498  0.75090294  0.24816904  1
  C  C129  1  0.25344289  0.88927265  0.24765246  1
  Zn  Zn130  1  0.20151146  0.72501286  0.29723382  1
  H  H131  1  0.03561534  0.71358453  0.32630149  1
  O  O132  1  0.22577663  0.72750483  0.37514843  1
  H  H133  1  0.19360728  0.71967389  0.46351790  1
  C  C134  1  0.22377029  0.74143488  0.48191615  1
  C  C135  1  0.01697060  0.72902574  0.28965004  1
  H  H136  1  0.15651806  0.55546484  0.27494411  1
  C  C137  1  0.19205048  0.53336593  0.27317479  1
  O  O138  1  0.20262962  0.64094815  0.26703631  1
  C  C139  1  0.24021498  0.61456377  0.26630727  1
  C  C140  1  0.23749203  0.55702097  0.26841149  1
  H  H141  1  0.31948568  0.55083893  0.26190057  1
  C  C142  1  0.28278842  0.53055936  0.26414544  1
  O  O143  1  0.28268898  0.63381903  0.25743707  1
  O  O144  1  0.12516394  0.75664179  0.29781392  1
  C  C145  1  0.10098529  0.76738106  0.25854230  1
  C  C146  1  0.04577805  0.75935312  0.25317863  1
  H  H147  1  0.32995463  0.79952802  0.44865368  1
  C  C148  1  0.30126701  0.78482962  0.47371448  1
  C  C149  1  0.26391085  0.97349809  0.29158960  1
  H  H150  1  0.27500317  0.95191145  0.32484104  1
  O  O151  1  0.26348029  0.86744680  0.28786159  1
  C  C152  1  0.25959204  0.75371301  0.39444479  1
  C  C153  1  0.26147695  0.76197749  0.44984188  1
  H  H154  1  0.45343847  0.81180990  0.26686033  1
  O  O155  1  0.29480090  0.77350857  0.36863224  1
  O  O156  1  0.37447452  0.77873359  0.25899561  1
  C  C157  1  0.47504005  0.77979436  0.25002986  1
  Zn  Zn158  1  0.30260347  0.78945285  0.29393821  1
  Zn  Zn159  1  0.22031943  0.72841400  0.71287087  1
  H  H160  1  0.05887335  0.71499172  0.67600160  1
  H  H161  1  0.20006052  0.72857386  0.55757035  1
  C  C162  1  0.03653660  0.72829839  0.70876153  1
  O  O163  1  0.14253533  0.74108392  0.71735005  1
  C  C164  1  0.22761907  0.74728563  0.53283990  1
  O  O165  1  0.25668104  0.65509019  0.72004207  1
  H  H166  1  0.26684596  0.57359435  0.68072967  1
  C  C167  1  0.26007979  0.55159747  0.71533738  1
  O  O168  1  0.22989814  0.76392620  0.63513242  1
  C  C169  1  0.47651373  0.77434612  0.71667261  1
  C  C170  1  0.30661626  0.79101926  0.52614776  1
  C  C171  1  0.26858041  0.77046142  0.55651223  1
  C  C172  1  0.26827223  0.77432844  0.61320337  1
  H  H173  1  0.45286752  0.78935372  0.68638958  1
  O  O174  1  0.37851740  0.77704402  0.72538257  1
  Zn  Zn175  1  0.30174628  0.80965855  0.71687699  1
  H  H176  1  0.33619856  0.81418654  0.54321866  1
  O  O177  1  0.30339613  0.79805321  0.63639260  1
  H  H178  1  0.23571832  0.57553314  0.84197194  1
  C  C179  1  0.24475929  0.55206636  0.80850707  1
  C  C180  1  0.06306002  0.74801172  0.75037918  1
  C  C181  1  0.25332689  0.57779243  0.76214940  1
  O  O182  1  0.25013032  0.66092262  0.80132391  1
  H  H183  1  0.46919444  0.71282734  0.83418561  1
  Zn  Zn184  1  0.29568944  0.73257053  0.80763241  1
  C  C185  1  0.48434066  0.72896458  0.79755240  1
  O  O186  1  0.37407096  0.73677222  0.79950043  1
  C  C187  1  0.25274846  0.63477218  0.76285314  1
  C  C188  1  0.11858081  0.75550872  0.75540994  1
  O  O189  1  0.13668071  0.77365598  0.79347750  1
  C  C190  1  0.03424944  0.76658278  0.79104544  1
  H  H191  1  0.05634324  0.77999337  0.82541999  1
  H  H192  1  0.16936323  0.80362896  0.96320289  1
  Zn  Zn193  1  0.20810799  0.81500252  0.79778264  1
  C  C194  1  0.20245980  0.78755187  0.98372842  1
  O  O195  1  0.21219660  0.80396975  0.87900155  1
  C  C196  1  0.21243384  0.99574772  0.76383615  1
  H  H197  1  0.17500029  0.97808278  0.75633121  1
  O  O198  1  0.20960863  0.88817838  0.76859097  1
  C  C199  1  0.24725982  0.77702602  0.95715325  1
  C  C200  1  0.25033872  0.91097247  0.76228717  1
  H  H201  1  0.32908845  0.76492803  0.96300038  1
  O  O202  1  0.25407741  0.77436430  0.76013909  1
  H  H203  1  0.33798373  0.96953193  0.75797398  1
  C  C204  1  0.29188374  0.76368918  0.98145991  1
  O  O205  1  0.28847523  0.77540946  0.87685911  1
  C  C206  1  0.30281193  0.99277147  0.75870208  1
  C  C207  1  0.25043003  0.78902218  0.90162911  1
  C  C208  1  0.25768460  0.96753275  0.76239152  1
  O  O209  1  0.28896336  0.88385283  0.75423634  1
  C  C210  1  0.45336056  0.75267166  0.76081254  1
  C  C211  1  0.40017267  0.75492289  0.76300934  1
  H  H212  1  0.53038318  0.17800574  0.19362460  1
  H  H213  1  0.67816452  0.18976097  0.04180732  1
  Zn  Zn214  1  0.69364302  0.18764748  0.20239158  1
  C  C215  1  0.51101293  0.20589896  0.21858716  1
  O  O216  1  0.61286693  0.20957417  0.21441564  1
  C  C217  1  0.71010104  0.20293411  0.01950600  1
  O  O218  1  0.70623906  0.20768159  0.12606370  1
  O  O219  1  0.71759934  0.11131034  0.21416670  1
  C  C220  1  0.74095506  0.23172949  0.10420700  1
  C  C221  1  0.74505070  0.22793081  0.04836546  1
  O  O222  1  0.74181216  0.23008148  0.24344410  1
  C  C223  1  0.72996400  0.00985085  0.20766002  1
  H  H224  1  0.72145333  0.03409853  0.17433620  1
  C  C225  1  0.94067514  0.22734353  0.24436277  1
  C  C226  1  0.88569538  0.22476512  0.23746365  1
  C  C227  1  0.73729837  0.43371867  0.24198486  1
  H  H228  1  0.65688146  0.44087185  0.24344051  1
  C  C229  1  0.69256610  0.46076765  0.24466413  1
  C  C230  1  0.73721564  0.37526711  0.24147089  1
  O  O231  1  0.69653122  0.35419012  0.24513211  1
  O  O232  1  0.77789411  0.35179917  0.23836568  1
  O  O233  1  0.86754673  0.26248997  0.21460241  1
  O  O234  1  0.77322845  0.25758720  0.12505967  1
  C  C235  1  0.78322248  0.45867566  0.23734240  1
  C  C236  1  0.78607197  0.25169251  0.02394707  1
  C  C237  1  0.96889188  0.27018490  0.22944213  1
  H  H238  1  0.81172265  0.27502711  0.04846203  1
  H  H239  1  0.95171504  0.30327171  0.21064659  1
  Zn  Zn240  1  0.78789104  0.27704481  0.20880798  1
  H  H241  1  0.81771770  0.43771066  0.23014661  1
  C  C242  1  0.59353317  0.23259028  0.25041129  1
  C  C243  1  0.53710170  0.23480603  0.25277094  1
  C  C244  1  0.73304101  0.03311293  0.25619179  1
  C  C245  1  0.74702848  0.00594938  0.29921308  1
  O  O246  1  0.74903300  0.11564629  0.29126545  1
  C  C247  1  0.73095856  0.09087880  0.25421683  1
  H  H248  1  0.75567999  0.02584320  0.33376495  1
  Zn  Zn249  1  0.78802998  0.19073977  0.29229020  1
  H  H250  1  0.94204510  0.15323462  0.27820762  1
  O  O251  1  0.79053553  0.23485773  0.35752746  1
  H  H252  1  0.82539320  0.22180222  0.45361129  1
  C  C253  1  0.78984809  0.23414483  0.46866257  1
  C  C254  1  0.96620977  0.18495024  0.26607109  1
  O  O255  1  0.85894220  0.18785202  0.25130790  1
  O  O256  1  0.61891574  0.25691372  0.28238521  1
  Zn  Zn257  1  0.69431157  0.27580955  0.28086256  1
  O  O258  1  0.71674343  0.26872202  0.35920454  1
  C  C259  1  0.51343972  0.26853638  0.28812488  1
  H  H260  1  0.67804208  0.28724171  0.44145409  1
  C  C261  1  0.70791882  0.26979493  0.46310744  1
  H  H262  1  0.53526344  0.29220682  0.31411056  1
  C  C263  1  0.75203861  0.25341444  0.43849700  1
  C  C264  1  0.75391342  0.25250594  0.38216574  1
  C  C265  1  0.71535829  0.02162998  0.70975116  1
  H  H266  1  0.68087097  0.04606023  0.71064585  1
  O  O267  1  0.72868576  0.12736066  0.72045849  1
  C  C268  1  0.74316612  0.24480804  0.60141224  1
  C  C269  1  0.74430915  0.24688296  0.54430478  1
  C  C270  1  0.60905656  0.22738049  0.74826019  1
  C  C271  1  0.76231004  0.04284139  0.71586435  1
  C  C272  1  0.78699336  0.23005085  0.52144474  1
  Zn  Zn273  1  0.80536060  0.20702149  0.70243234  1
  H  H274  1  0.96880976  0.23491240  0.67816307  1
  H  H275  1  0.81810264  0.21675577  0.54607773  1
  O  O276  1  0.77998211  0.22633741  0.62324099  1
  O  O277  1  0.88313386  0.23402270  0.71763123  1
  C  C278  1  0.80681860  0.01426437  0.72327947  1
  H  H279  1  0.84267043  0.03157302  0.72736333  1
  C  C280  1  0.76583519  0.10036390  0.71738533  1
  O  O281  1  0.80812049  0.12158043  0.72030572  1
  O  O282  1  0.75751786  0.24099137  0.74920187  1
  O  O283  1  0.70571340  0.25853469  0.62619528  1
  O  O284  1  0.62837464  0.25064834  0.71298191  1
  Zn  Zn285  1  0.70840971  0.27907298  0.70486095  1
  C  C286  1  0.52920483  0.26456283  0.72037788  1
  H  H287  1  0.55107759  0.27774086  0.68701482  1
  O  O288  1  0.71255576  0.36106289  0.72933195  1
  C  C289  1  0.70538670  0.26783955  0.51438246  1
  H  H290  1  0.67527021  0.28525665  0.53734628  1
  C  C291  1  0.70735336  0.46876070  0.72311627  1
  H  H292  1  0.67391974  0.44590946  0.71815986  1
  C  C293  1  0.98705208  0.25193428  0.71040043  1
  C  C294  1  0.75171175  0.38515701  0.73852732  1
  C  C295  1  0.75052381  0.44176598  0.73468969  1
  C  C296  1  0.79441424  0.47000191  0.74286092  1
  H  H297  1  0.82965212  0.44563118  0.74845707  1
  Zn  Zn298  1  0.71518936  0.19087312  0.78442934  1
  H  H299  1  0.68225281  0.18084934  0.94303673  1
  H  H300  1  0.54644532  0.19607061  0.82640627  1
  C  C301  1  0.71220827  0.20135686  0.96574794  1
  C  C302  1  0.52829941  0.21993621  0.79962678  1
  O  O303  1  0.72296804  0.20679713  0.86532104  1
  O  O304  1  0.63383757  0.19950146  0.77809758  1
  C  C305  1  0.74986011  0.22813898  0.94316777  1
  C  C306  1  0.55427696  0.23590105  0.75732733  1
  C  C307  1  0.75445989  0.23387595  0.88675936  1
  Zn  Zn308  1  0.79778967  0.28942392  0.78997922  1
  H  H309  1  0.95965262  0.28970174  0.82983938  1
  H  H310  1  0.81636361  0.27449077  0.95469412  1
  O  O311  1  0.79105397  0.36359001  0.75099619  1
  C  C312  1  0.78736255  0.25255612  0.97181366  1
  C  C313  1  0.98226650  0.28009932  0.79804575  1
  O  O314  1  0.78371751  0.26207063  0.86412059  1
  O  O315  1  0.87983553  0.27338259  0.78966277  1
  C  C316  1  0.90387576  0.25659941  0.75417427  1
  C  C317  1  0.96006666  0.26121757  0.75395754  1
  Zn  Zn318  1  0.70268494  0.68434861  0.19743050  1
  H  H319  1  0.54691619  0.67480592  0.17848267  1
  C  C320  1  0.52434654  0.70213578  0.20038034  1
  H  H321  1  0.73431217  0.64857704  0.03004747  1
  O  O322  1  0.72556323  0.68611482  0.10991684  1
  O  O323  1  0.63140013  0.71544758  0.18670403  1
  O  O324  1  0.70821917  0.62135781  0.24621989  1
  C  C325  1  0.74771762  0.59387204  0.24782913  1
  C  C326  1  0.69527406  0.51359295  0.24793967  1
  C  C327  1  0.74201888  0.53653227  0.24491677  1
  C  C328  1  0.74148625  0.72651888  0.09297030  1
  C  C329  1  0.60748176  0.74602939  0.21354508  1
  C  C330  1  0.55169314  0.74368503  0.21817702  1
  C  C331  1  0.74942967  0.72874542  0.03673591  1
  O  O332  1  0.74932252  0.72749570  0.23518745  1
  C  C333  1  0.74339830  0.68375078  0.00838247  1
  C  C334  1  0.88996541  0.73499560  0.23576636  1
  H  H335  1  0.82367586  0.53365525  0.23724348  1
  C  C336  1  0.78777601  0.51135043  0.24138119  1
  C  C337  1  0.94421097  0.74457228  0.24036444  1
  C  C338  1  0.73884594  0.95895283  0.20030580  1
  H  H339  1  0.73729323  0.94019133  0.16322920  1
  O  O340  1  0.74660335  0.76896155  0.11774317  1
  O  O341  1  0.62936641  0.77884908  0.23822566  1
  C  C342  1  0.52668166  0.78032962  0.24727542  1
  C  C343  1  0.74902678  0.93201862  0.24558905  1
  C  C344  1  0.75179786  0.87535653  0.23621304  1
  H  H345  1  0.76518326  0.81037453  0.03246557  1
  O  O346  1  0.86766188  0.75356834  0.19884399  1
  C  C347  1  0.75937262  0.77531501  0.01235468  1
  O  O348  1  0.76396152  0.85640668  0.19461927  1
  Zn  Zn349  1  0.78903071  0.77704134  0.19205033  1
  H  H350  1  0.95086680  0.78697728  0.17286925  1
  C  C351  1  0.97116514  0.77293801  0.20560949  1
  C  C352  1  0.74672450  0.74002583  0.37726675  1
  C  C353  1  0.74433787  0.74703944  0.43338218  1
  H  H354  1  0.66212681  0.53664976  0.25323452  1
  O  O355  1  0.77690260  0.70942854  0.35957469  1
  H  H356  1  0.81224554  0.70820866  0.43415389  1
  Zn  Zn357  1  0.79425957  0.69018710  0.28377001  1
  H  H358  1  0.94768471  0.69552766  0.31128405  1
  C  C359  1  0.96775542  0.72225906  0.28415746  1
  C  C360  1  0.78425375  0.72396519  0.45967196  1
  O  O361  1  0.86799242  0.71060002  0.27072959  1
  O  O362  1  0.78939901  0.61289440  0.25411722  1
  O  O363  1  0.71386863  0.76491932  0.35240844  1
  C  C364  1  0.70324777  0.76472875  0.46128426  1
  H  H365  1  0.66570345  0.77299571  0.44727749  1
  Zn  Zn366  1  0.70757637  0.77766468  0.26920573  1
  H  H367  1  0.54333993  0.81225407  0.26618836  1
  C  C368  1  0.74860528  0.95362518  0.29389679  1
  O  O369  1  0.75193565  0.84525180  0.27394125  1
  H  H370  1  0.75614903  0.92780687  0.32632903  1
  O  O371  1  0.71871814  0.63266661  0.71377368  1
  C  C372  1  0.74954484  0.54706280  0.72220398  1
  C  C373  1  0.61331929  0.74670279  0.74054019  1
  C  C374  1  0.74910603  0.73833269  0.59584397  1
  C  C375  1  0.74833962  0.73944789  0.54001816  1
  C  C376  1  0.55851318  0.74829411  0.74367303  1
  H  H377  1  0.66985005  0.54065479  0.70650502  1
  C  C378  1  0.70451131  0.52125621  0.71836731  1
  C  C379  1  0.75520931  0.60354806  0.71420922  1
  O  O380  1  0.75741640  0.73959839  0.74055922  1
  Zn  Zn381  1  0.80369557  0.70191659  0.69220133  1
  H  H382  1  0.96666426  0.71475797  0.67055846  1
  H  H383  1  0.82479167  0.70606573  0.53016221  1
  O  O384  1  0.78594111  0.71443400  0.61570648  1
  C  C385  1  0.79064023  0.72177688  0.51147116  1
  C  C386  1  0.98476514  0.73035844  0.70494954  1
  O  O387  1  0.88017106  0.72770197  0.70542872  1
  O  O388  1  0.80034084  0.62063473  0.70783451  1
  H  H389  1  0.82726612  0.54768505  0.74176333  1
  C  C390  1  0.79482197  0.52172829  0.73521117  1
  O  O391  1  0.71640620  0.76404481  0.61794617  1
  C  C392  1  0.70814808  0.76139188  0.51374809  1
  H  H393  1  0.67756671  0.76967118  0.54113575  1
  O  O394  1  0.63272179  0.77044030  0.70366807  1
  C  C395  1  0.52706485  0.77392981  0.70867077  1
  Zn  Zn396  1  0.71224777  0.77890780  0.69638683  1
  O  O397  1  0.71505276  0.85467013  0.72225618  1
  H  H398  1  0.54701770  0.78941713  0.67481453  1
  C  C399  1  0.71209380  0.96692970  0.71058136  1
  H  H400  1  0.67724507  0.94688220  0.70177868  1
  C  C401  1  0.90143240  0.75024577  0.74217605  1
  C  C402  1  0.95789445  0.75205780  0.74549549  1
  O  O403  1  0.79364758  0.85688520  0.73836895  1
  C  C404  1  0.80087523  0.96284999  0.72893871  1
  H  H405  1  0.83208372  0.93654268  0.73902760  1
  C  C406  1  0.75384147  0.87972169  0.72862306  1
  C  C407  1  0.75454431  0.93675986  0.72150965  1
  H  H408  1  0.73261290  0.64771721  0.93195939  1
  Zn  Zn409  1  0.71403003  0.69252506  0.77293798  1
  C  C410  1  0.74212706  0.68173521  0.95547665  1
  H  H411  1  0.55451136  0.71204842  0.81845537  1
  C  C412  1  0.53441161  0.72768707  0.78653113  1
  O  O413  1  0.74406922  0.68959585  0.85321079  1
  O  O414  1  0.64063551  0.72871393  0.77557002  1
  C  C415  1  0.75526372  0.72761669  0.93438479  1
  C  C416  1  0.75489740  0.72885816  0.87731016  1
  O  O417  1  0.87595279  0.77567593  0.77233587  1
  C  C418  1  0.76078634  0.77443086  0.96037243  1
  O  O419  1  0.76240904  0.77186446  0.85777995  1
  H  H420  1  0.95855023  0.78210761  0.82333731  1
  C  C421  1  0.98177150  0.76790109  0.79045877  1
  H  H422  1  0.76496813  0.80762726  0.93599267  1
  Zn  Zn423  1  0.79420296  0.78194026  0.78266845  1
