# generated using pymatgen
data_CuH5C12N3O4
_symmetry_space_group_name_H-M   'P 1'
_cell_length_a   24.35726863
_cell_length_b   25.93850325
_cell_length_c   14.84167059
_cell_angle_alpha   90.00000000
_cell_angle_beta   90.00000000
_cell_angle_gamma   90.00000000
_symmetry_Int_Tables_number   1
_chemical_formula_structural   CuH5C12N3O4
_chemical_formula_sum   'Cu24 H120 C288 N72 O96'
_cell_volume   9376.83525889
_cell_formula_units_Z   24
loop_
 _symmetry_equiv_pos_site_id
 _symmetry_equiv_pos_as_xyz
  1  'x, y, z'
loop_
 _atom_site_type_symbol
 _atom_site_label
 _atom_site_symmetry_multiplicity
 _atom_site_fract_x
 _atom_site_fract_y
 _atom_site_fract_z
 _atom_site_occupancy
  N  N0  1  0.10884418  0.12907082  0.17775322  1
  O  O1  1  0.08135619  0.22341830  0.15684271  1
  H  H2  1  0.25543502  0.15269168  0.43964474  1
  C  C3  1  0.11103202  0.12519193  0.39257512  1
  Cu  Cu4  1  0.13422887  0.12873926  0.04331916  1
  O  O5  1  0.38950843  0.22819320  0.17039640  1
  N  N6  1  0.13231773  0.10101624  0.23644126  1
  H  H7  1  0.39820247  0.13594110  0.27151677  1
  C  C8  1  0.45740642  0.05060599  0.07075465  1
  C  C9  1  0.32070750  0.00129885  0.27653816  1
  C  C10  1  0.13560377  0.09561325  0.32153775  1
  C  C11  1  0.17729229  0.05191984  0.34254491  1
  C  C12  1  0.44924845  0.06589947  0.36889928  1
  C  C13  1  0.08105602  0.19476891  0.47614125  1
  H  H14  1  0.09150874  0.16684385  0.20197996  1
  H  H15  1  0.10832025  0.11232715  0.46163591  1
  O  O16  1  0.08910340  0.18073047  0.02886721  1
  N  N17  1  0.49768239  0.14038907  0.32768292  1
  C  C18  1  0.22982398  0.06667933  0.03178902  1
  N  N19  1  0.38721470  0.02573578  0.16328737  1
  C  C20  1  0.49572787  0.09087720  0.33387969  1
  H  H21  1  0.24076400  0.08394629  0.26331027  1
  H  H22  1  0.35269893  0.12861292  0.15835454  1
  H  H23  1  0.33032229  0.07637243  0.20027722  1
  C  C24  1  0.39230686  0.08763297  0.38716826  1
  O  O25  1  0.25856249  0.08486116  0.09261814  1
  C  C26  1  0.29184670  0.13165009  0.41970137  1
  N  N27  1  0.46028288  0.01550789  0.37244729  1
  N  N28  1  0.25069902  0.14741748  0.12243967  1
  C  C29  1  0.22987767  0.05218262  0.30719104  1
  C  C30  1  0.34265962  0.03516211  0.20874421  1
  C  C31  1  0.31917482  0.14812023  0.34047152  1
  C  C32  1  0.36003114  0.06752340  0.45886590  1
  C  C33  1  0.39211250  0.11908514  0.12533031  1
  N  N34  1  0.08885106  0.17002268  0.39004063  1
  C  C35  1  0.47756151  0.14283794  0.05318513  1
  C  C36  1  0.29418734  0.18199840  0.26539013  1
  N  N37  1  0.27469164  0.15802982  0.19413971  1
  C  C38  1  0.37089052  0.12333397  0.32755471  1
  C  C39  1  0.40863961  0.06611286  0.11573813  1
  C  C40  1  0.30892789  0.09121837  0.47522290  1
  C  C41  1  0.42836406  0.15487388  0.09823336  1
  C  C42  1  0.27966938  0.23529128  0.26491911  1
  C  C43  1  0.08610284  0.22203168  0.07663926  1
  C  C44  1  0.34758637  0.24823804  0.42745734  1
  C  C45  1  0.42145634  0.21398098  0.11449221  1
  C  C46  1  0.49233878  0.09119457  0.04348550  1
  H  H47  1  0.33096671  0.03475858  0.02472374  1
  H  H48  1  0.37351103  0.23476330  0.37526131  1
  C  C49  1  0.26580545  0.00964769  0.32179738  1
  C  C50  1  0.15499978  0.01075018  0.39449206  1
  O  O51  1  0.44690208  0.24461159  0.06131557  1
  H  H52  1  0.11535343  0.01260523  0.42181506  1
  H  H53  1  0.01360045  0.18008429  0.35600973  1
  H  H54  1  0.46842574  0.01095466  0.06296065  1
  O  O55  1  0.17680473  0.06716996  0.03700025  1
  C  C56  1  0.00255893  0.02358928  0.44316881  1
  C  C57  1  0.04584378  0.23810178  0.48355542  1
  O  O58  1  0.16629716  0.14738213  0.69688066  1
  C  C59  1  0.13973726  0.18831666  0.70584603  1
  C  C60  1  0.10608373  0.20497842  0.62873639  1
  O  O61  1  0.22539519  0.22762857  0.90574854  1
  C  C62  1  0.25094106  0.03204171  0.96152560  1
  O  O63  1  0.42840000  0.11453529  0.79478073  1
  O  O64  1  0.14357722  0.21678875  0.77422757  1
  C  C65  1  0.26600562  0.07669898  0.54487540  1
  C  C66  1  0.21611053  0.01062466  0.89819039  1
  N  N67  1  0.37375743  0.21096336  0.79424168  1
  Cu  Cu68  1  0.32919190  0.16359080  0.88032877  1
  C  C69  1  0.41845268  0.23236588  0.55408804  1
  N  N70  1  0.04828054  0.02900284  0.79229928  1
  N  N71  1  0.21525474  0.15317853  0.61406134  1
  N  N72  1  0.23443800  0.11245876  0.58496406  1
  Cu  Cu73  1  0.43787176  0.17555428  0.72341398  1
  C  C74  1  0.10652671  0.17406292  0.55193208  1
  H  H75  1  0.13285360  0.13921223  0.54478147  1
  C  C76  1  0.00466951  0.04846892  0.60407599  1
  H  H77  1  0.17046488  0.02066794  0.90218309  1
  C  C78  1  0.38558055  0.08889076  0.78092357  1
  O  O79  1  0.34075902  0.10788907  0.80901502  1
  N  N80  1  0.06460423  0.01793563  0.86488276  1
  H  H81  1  0.29632100  0.04999145  0.71711821  1
  C  C82  1  0.25188895  0.02334351  0.56589998  1
  C  C83  1  0.30570497  0.01971444  0.97026794  1
  C  C84  1  0.38347165  0.04332882  0.71939326  1
  C  C85  1  0.42828069  0.01425701  0.69124454  1
  C  C86  1  0.33225814  0.02872113  0.69056854  1
  H  H87  1  0.11810050  0.23284672  0.91273913  1
  O  O88  1  0.02559332  0.00529936  0.62117999  1
  H  H89  1  0.47126606  0.02464951  0.70540048  1
  H  H90  1  0.21059707  0.00651092  0.55171251  1
  O  O91  1  0.31285867  0.21727595  0.94050756  1
  C  C92  1  0.26697268  0.23919457  0.95184491  1
  O  O93  1  0.42891321  0.23368689  0.64004953  1
  H  H94  1  0.37441054  0.03549259  0.50480641  1
  C  C95  1  0.36318001  0.24793296  0.51951762  1
  O  O96  1  0.45560887  0.22079782  0.50058138  1
  C  C97  1  0.26989521  0.28433248  0.01118452  1
  N  N98  1  0.17526060  0.34195471  0.16338884  1
  C  C99  1  0.17705105  0.36099510  0.24271024  1
  H  H100  1  0.18084091  0.28856732  0.02193032  1
  H  H101  1  0.21862621  0.37352123  0.25318098  1
  O  O102  1  0.02786213  0.45137940  0.03497385  1
  H  H103  1  0.26538582  0.25790696  0.20949446  1
  H  H104  1  0.07418306  0.26117789  0.28047387  1
  O  O105  1  0.41878402  0.34592425  0.06042469  1
  C  C106  1  0.07367903  0.34187507  0.32172466  1
  C  C107  1  0.13420755  0.36127807  0.31324261  1
  C  C108  1  0.38102831  0.36405766  0.11576849  1
  N  N109  1  0.21901146  0.40345019  0.37341184  1
  N  N110  1  0.15454226  0.37875998  0.38756292  1
  C  C111  1  0.32210941  0.34531921  0.09491065  1
  C  C112  1  0.04321505  0.40656459  0.06853468  1
  C  C113  1  0.04848653  0.38946721  0.33428605  1
  C  C114  1  0.05063998  0.29391448  0.30798987  1
  H  H115  1  0.07225084  0.42524796  0.33928383  1
  C  C116  1  0.27525223  0.36058209  0.14059874  1
  H  H117  1  0.27697579  0.39049494  0.19480807  1
  H  H118  1  0.49674984  0.45430371  0.07073301  1
  O  O119  1  0.39117863  0.38753006  0.18158582  1
  C  C120  1  0.22482843  0.33713355  0.11976509  1
  C  C121  1  0.22019700  0.30243390  0.04427910  1
  H  H122  1  0.21459172  0.30204665  0.44504597  1
  C  C123  1  0.06811784  0.31473656  0.07056351  1
  H  H124  1  0.05328091  0.31158586  0.13982624  1
  N  N125  1  0.29522124  0.44562828  0.43346657  1
  H  H126  1  0.39775148  0.47552369  0.43906388  1
  C  C127  1  0.32109989  0.30568470  0.03211123  1
  Cu  Cu128  1  0.48199647  0.30923726  0.08257701  1
  C  C129  1  0.08542642  0.27121267  0.02436209  1
  C  C130  1  0.06652605  0.36050403  0.01859515  1
  C  C131  1  0.25668611  0.28678976  0.47034786  1
  N  N132  1  0.27996450  0.27371614  0.31979073  1
  H  H133  1  0.02277350  0.25141955  0.42512641  1
  C  C134  1  0.29538455  0.26958749  0.40628098  1
  N  N135  1  0.23252854  0.42039826  0.44785933  1
  O  O136  1  0.03568994  0.40117947  0.14768223  1
  N  N137  1  0.02266234  0.49820694  0.33517397  1
  C  C138  1  0.36623006  0.49002055  0.48898459  1
  H  H139  1  0.24931625  0.39641465  0.60583178  1
  O  O140  1  0.19053111  0.31828006  0.61082807  1
  C  C141  1  0.10607294  0.27072441  0.93744348  1
  C  C142  1  0.07560605  0.25345930  0.63254460  1
  C  C143  1  0.04606465  0.26813125  0.56107616  1
  C  C144  1  0.08706179  0.36634878  0.93410596  1
  C  C145  1  0.21107499  0.44691534  0.70971057  1
  H  H146  1  0.09124228  0.40469819  0.89903605  1
  C  C147  1  0.27293412  0.47404377  0.58781014  1
  C  C148  1  0.24568114  0.43437643  0.63428322  1
  C  C149  1  0.27428536  0.28305894  0.55944309  1
  C  C150  1  0.16502099  0.36809470  0.79997887  1
  O  O151  1  0.24657155  0.28855014  0.71547439  1
  C  C152  1  0.11233650  0.31982342  0.89633542  1
  N  N153  1  0.15340894  0.32105897  0.83488140  1
  C  C154  1  0.18156955  0.40767800  0.76408916  1
  C  C155  1  0.23310505  0.29865731  0.63045717  1
  C  C156  1  0.32615885  0.26281634  0.58309318  1
  C  C157  1  0.31226538  0.46773307  0.50447331  1
  H  H158  1  0.33635115  0.25555291  0.65581541  1
  Cu  Cu159  1  0.20651497  0.26083810  0.79874301  1
  H  H160  1  0.07479871  0.27376772  0.69563070  1
  C  C161  1  0.00791446  0.31741177  0.57167631  1
  N  N162  1  0.38142360  0.25205852  0.82755741  1
  O  O163  1  0.00869134  0.34150528  0.64029213  1
  C  C164  1  0.20397018  0.49862516  0.73493289  1
  H  H165  1  0.35895960  0.29110182  0.99902007  1
  C  C166  1  0.17442218  0.65910235  0.24568520  1
  C  C167  1  0.12825568  0.64674922  0.19139248  1
  C  C168  1  0.13506430  0.64273279  0.09238606  1
  C  C169  1  0.07551643  0.64161829  0.22758316  1
  C  C170  1  0.16413381  0.66394560  0.33973585  1
  C  C171  1  0.06332989  0.64677244  0.31977559  1
  N  N172  1  0.22762388  0.67339879  0.08921613  1
  C  C173  1  0.27577383  0.68515208  0.04918498  1
  H  H174  1  0.21663430  0.66073220  0.21890222  1
  C  C175  1  0.20690571  0.67178697  0.40526900  1
  N  N176  1  0.08966229  0.62399829  0.04972272  1
  H  H177  1  0.10087645  0.65828933  0.44796275  1
  C  C178  1  0.23337393  0.68581588  0.47147870  1
  N  N179  1  0.04351647  0.60410684  0.05683580  1
  C  C180  1  0.18616090  0.65311455  0.04738761  1
  C  C181  1  0.11099319  0.65695439  0.37450710  1
  C  C182  1  0.35596405  0.73709881  0.05844082  1
  H  H183  1  0.02023564  0.53621711  0.33394986  1
  C  C184  1  0.46406646  0.54548876  0.44226041  1
  H  H185  1  0.04247337  0.63456761  0.18005577  1
  C  C186  1  0.30513144  0.72355581  0.09556343  1
  N  N187  1  0.01750648  0.66878084  0.45264676  1
  H  H188  1  0.43725614  0.54034162  0.38094789  1
  H  H189  1  0.28510322  0.74548360  0.15151646  1
  C  C190  1  0.01015269  0.65429220  0.36455169  1
  O  O191  1  0.45578730  0.54537964  0.04232511  1
  C  C192  1  0.15598935  0.70383983  0.72545542  1
  C  C193  1  0.29831134  0.65597587  0.97653850  1
  C  C194  1  0.24014230  0.53503714  0.69062376  1
  H  H195  1  0.19765852  0.64516012  0.97881361  1
  Cu  Cu196  1  0.47744167  0.60161510  0.81868136  1
  H  H197  1  0.42512020  0.71271605  0.96834984  1
  H  H198  1  0.27427008  0.62605723  0.94356818  1
  H  H199  1  0.44970788  0.54093171  0.67517308  1
  C  C200  1  0.37713214  0.63638680  0.87758218  1
  O  O201  1  0.06074891  0.69230874  0.60121058  1
  C  C202  1  0.05666477  0.72065427  0.67228965  1
  H  H203  1  0.28217743  0.70243278  0.75782175  1
  H  H204  1  0.16046440  0.68271743  0.66012520  1
  C  C205  1  0.27136575  0.52734861  0.61180673  1
  C  C206  1  0.19968627  0.71057844  0.78842074  1
  H  H207  1  0.29085985  0.55472987  0.56760025  1
  O  O208  1  0.42739287  0.64809666  0.85683469  1
  C  C209  1  0.10623476  0.72775818  0.73926250  1
  N  N210  1  0.25029204  0.68155916  0.78908017  1
  C  C211  1  0.24515989  0.63142357  0.75713918  1
  C  C212  1  0.46919339  0.54467253  0.60985595  1
  N  N213  1  0.25663023  0.70256952  0.54537175  1
  O  O214  1  0.35446181  0.59920260  0.84497660  1
  C  C215  1  0.43923804  0.53714349  0.52931583  1
  C  C216  1  0.24351809  0.58908861  0.72252694  1
  C  C217  1  0.35037326  0.66817344  0.95175195  1
  C  C218  1  0.38089920  0.70649326  0.98996435  1
  H  H219  1  0.17980421  0.50967023  0.79029258  1
  N  N220  1  0.38565134  0.52382731  0.54449406  1
  O  O221  1  0.49756801  0.59243782  0.93784214  1
  N  N222  1  0.00391067  0.68304796  0.52821231  1
  C  C223  1  0.19535335  0.74337885  0.86218037  1
  C  C224  1  0.49316209  0.55360917  0.99323203  1
  O  O225  1  0.01767424  0.74876980  0.68559781  1
  H  H226  1  0.00227059  0.70472395  0.91483769  1
  C  C227  1  0.23594215  0.74689241  0.57841016  1
  Cu  Cu228  1  0.00389350  0.60157331  0.95325032  1
  H  H229  1  0.23213312  0.74771530  0.90866662  1
  H  H230  1  0.12855948  0.84398531  0.37122318  1
  C  C231  1  0.15675656  0.85650505  0.32238552  1
  C  C232  1  0.26593415  0.90043440  0.11567404  1
  C  C233  1  0.13620075  0.86486227  0.23743081  1
  H  H234  1  0.15644729  0.88704312  0.10473704  1
  O  O235  1  0.06761645  0.86545678  0.12932674  1
  O  O236  1  0.31702938  0.90150525  0.13040552  1
  N  N237  1  0.23353681  0.85304759  0.42935502  1
  N  N238  1  0.45557444  0.87763666  0.15518506  1
  Cu  Cu239  1  0.41709824  0.91927813  0.42774694  1
  N  N240  1  0.47290658  0.96996187  0.37624795  1
  C  C241  1  0.07804162  0.85632445  0.21201108  1
  C  C242  1  0.17368175  0.88159337  0.17102854  1
  C  C243  1  0.21330147  0.86099093  0.34241077  1
  C  C244  1  0.25153353  0.87209724  0.27511985  1
  C  C245  1  0.19106603  0.96889963  0.41348229  1
  C  C246  1  0.22937990  0.88466805  0.18986392  1
  N  N247  1  0.44804454  0.89900744  0.08302908  1
  H  H248  1  0.29605409  0.87704623  0.29100077  1
  O  O249  1  0.24526777  0.90968106  0.04009767  1
  N  N250  1  0.37819142  0.92132967  0.30786072  1
  C  C251  1  0.17632382  0.92603129  0.47894839  1
  O  O252  1  0.04158258  0.84711784  0.26679113  1
  O  O253  1  0.47808213  0.86483200  0.33381146  1
  C  C254  1  0.24435335  0.96963938  0.37373254  1
  Cu  Cu255  1  0.37264067  0.86929629  0.19994016  1
  O  O256  1  0.36162336  0.80031852  0.16514312  1
  N  N257  1  0.35026338  0.96009174  0.29250905  1
  C  C258  1  0.38408021  0.77934768  0.09544132  1
  Cu  Cu259  1  0.48313590  0.80261307  0.15273902  1
  Cu  Cu260  1  0.05011331  0.82282641  0.03866054  1
  H  H261  1  0.27170840  0.93619294  0.39109185  1
  Cu  Cu262  1  0.45793693  0.92700551  0.26079726  1
  O  O263  1  0.43097229  0.79163589  0.06704595  1
  H  H264  1  0.36247082  0.96330203  0.04679038  1
  H  H265  1  0.02131621  0.98725736  0.45837388  1
  H  H266  1  0.16786457  0.75709703  0.48831300  1
  C  C267  1  0.20274508  0.87506083  0.48870750  1
  C  C268  1  0.44054139  0.92221199  0.00252699  1
  C  C269  1  0.27071800  0.83095213  0.77902068  1
  C  C270  1  0.16141768  0.80665757  0.60730042  1
  C  C271  1  0.24287306  0.80484256  0.70189659  1
  H  H272  1  0.41385463  0.84063869  0.90002838  1
  C  C273  1  0.42417415  0.97461946  0.62870026  1
  N  N274  1  0.13793857  0.93237757  0.54255298  1
  C  C275  1  0.47379916  0.90054660  0.92568139  1
  H  H276  1  0.36701542  0.92839214  0.54277400  1
  H  H277  1  0.22181950  0.85266036  0.54774624  1
  C  C278  1  0.14540500  0.81254449  0.94064301  1
  O  O279  1  0.10239091  0.83856658  0.94854064  1
  O  O280  1  0.23912834  0.85695269  0.82864047  1
  N  N281  1  0.35573672  0.76758734  0.76584406  1
  C  C282  1  0.14754764  0.77050947  0.87378660  1
  O  O283  1  0.08234199  0.86337877  0.62955700  1
  O  O284  1  0.32048441  0.82558315  0.79476147  1
  N  N285  1  0.27979299  0.98074189  0.57605784  1
  C  C286  1  0.39150929  0.95112894  0.99254128  1
  O  O287  1  0.21168132  0.93825864  0.69442294  1
  C  C288  1  0.19574496  0.96211835  0.75617615  1
  C  C289  1  0.45138603  0.85700873  0.88294276  1
  N  N290  1  0.40483299  0.77396633  0.75452600  1
  C  C291  1  0.10443476  0.82726685  0.58402409  1
  H  H292  1  0.45413805  0.76062050  0.60074584  1
  C  C293  1  0.45790052  0.79114769  0.74929456  1
  H  H294  1  0.30966450  0.94077296  0.77264458  1
  C  C295  1  0.47305847  0.94639106  0.58907418  1
  C  C296  1  0.18989308  0.82404314  0.68284604  1
  H  H297  1  0.17034974  0.85219934  0.72830329  1
  N  N298  1  0.37429450  0.96133529  0.90995503  1
  H  H299  1  0.31299897  0.75714310  0.65309081  1
  C  C300  1  0.47891778  0.83467026  0.80715110  1
  N  N301  1  0.10064709  0.92869877  0.59832836  1
  C  C302  1  0.32398212  0.98472446  0.90209880  1
  Cu  Cu303  1  0.23973706  0.86778125  0.94744926  1
  C  C304  1  0.29150300  0.96709470  0.82710571  1
  O  O305  1  0.14325964  0.97252097  0.76725888  1
  C  C306  1  0.37348791  0.95777024  0.59907022  1
  H  H307  1  0.06654581  0.78483906  0.81975562  1
  C  C308  1  0.10380925  0.76047721  0.81417093  1
  C  C309  1  0.23677293  0.98042225  0.82827094  1
  O  O310  1  0.18863637  0.82150155  0.98692045  1
  C  C311  1  0.47989617  0.77576721  0.66459996  1
  C  C312  1  0.32679493  0.98730382  0.62684097  1
  O  O313  1  0.08404452  0.80881102  0.51880565  1
  O  O314  1  0.46086568  0.90836794  0.53026053  1
  C  C315  1  0.18503291  0.76939284  0.55211733  1
  C  C316  1  0.26833940  0.76949208  0.64851139  1
  O  O317  1  0.01257401  0.78269168  0.95836487  1
  Cu  Cu318  1  0.08580066  0.98997421  0.68752815  1
  H  H319  1  0.49310002  0.83807750  0.51169165  1
  H  H320  1  0.62458524  0.06202829  0.46374264  1
  C  C321  1  0.66047594  0.17625727  0.13717895  1
  C  C322  1  0.66770192  0.20347139  0.48970054  1
  C  C323  1  0.64517564  0.15188651  0.48075297  1
  O  O324  1  0.65334639  0.13449069  0.09184692  1
  N  N325  1  0.67175310  0.12531188  0.41906944  1
  Cu  Cu326  1  0.86543038  0.19371415  0.29867322  1
  C  C327  1  0.54639927  0.21332055  0.34758762  1
  C  C328  1  0.67879488  0.04531778  0.34804350  1
  O  O329  1  0.69518948  0.20719786  0.12158880  1
  C  C330  1  0.96290699  0.11741446  0.38794855  1
  N  N331  1  0.82066458  0.13084344  0.30321989  1
  N  N332  1  0.79155472  0.12731329  0.23919288  1
  C  C333  1  0.58033233  0.15118261  0.23242594  1
  H  H334  1  0.78594392  0.00382896  0.20647884  1
  H  H335  1  0.57889117  0.11465878  0.19104575  1
  C  C336  1  0.61740866  0.18875922  0.20960454  1
  H  H337  1  0.70497055  0.21462984  0.44967310  1
  H  H338  1  0.95527544  0.08425376  0.25027533  1
  N  N339  1  0.93422678  0.16145254  0.35380319  1
  N  N340  1  0.74560904  0.07258482  0.22463412  1
  C  C341  1  0.65765534  0.07690773  0.41844306  1
  N  N342  1  0.71643804  0.06610950  0.29112848  1
  Cu  Cu343  1  0.81453512  0.07984131  0.41250447  1
  O  O344  1  0.82581157  0.21089492  0.44561090  1
  O  O345  1  0.84207819  0.02245498  0.35092937  1
  C  C346  1  0.97165069  0.19685509  0.34495600  1
  C  C347  1  0.54393815  0.16425039  0.30391175  1
  H  H348  1  0.53686870  0.07156555  0.31381800  1
  C  C349  1  0.97108455  0.10808880  0.48142472  1
  C  C350  1  0.96537680  0.07825745  0.32314654  1
  C  C351  1  0.98651801  0.03284354  0.35676225  1
  H  H352  1  0.50305933  0.17263330  0.03224160  1
  H  H353  1  0.63843695  0.00760757  0.18497941  1
  C  C354  1  0.62155519  0.23756921  0.24794534  1
  N  N355  1  0.57501767  0.00422894  0.09716233  1
  C  C356  1  0.95452659  0.24671320  0.30902308  1
  H  H357  1  0.51581908  0.22491244  0.39916745  1
  C  C358  1  0.58692490  0.24676186  0.32129247  1
  C  C359  1  0.54618688  0.08152929  0.00422416  1
  O  O360  1  0.78607042  0.13564812  0.47542812  1
  C  C361  1  0.80123435  0.18219600  0.49331632  1
  H  H362  1  0.74346001  0.12210045  0.60640242  1
  C  C363  1  0.82325012  0.03521878  0.81389812  1
  C  C364  1  0.78023435  0.01617992  0.67049943  1
  C  C365  1  0.54180001  0.13988013  0.66504101  1
  C  C366  1  0.81901990  0.04154222  0.71966770  1
  C  C367  1  0.69015505  0.13833108  0.77217048  1
  Cu  Cu368  1  0.65282777  0.13221271  0.96898845  1
  C  C369  1  0.86942601  0.06298608  0.86173225  1
  O  O370  1  0.90402852  0.09001478  0.81804310  1
  C  C371  1  0.58677045  0.16455706  0.60766607  1
  C  C372  1  0.60697891  0.21461567  0.61863933  1
  C  C373  1  0.78004929  0.19792459  0.58622607  1
  O  O374  1  0.57458041  0.11520946  0.96460529  1
  C  C375  1  0.75294896  0.16057178  0.63795196  1
  C  C376  1  0.72867410  0.17388530  0.71865833  1
  O  O377  1  0.55914438  0.03502899  0.99685389  1
  O  O378  1  0.66596761  0.15491206  0.84600274  1
  O  O379  1  0.68431792  0.09441027  0.75364313  1
  O  O380  1  0.81431142  0.04526713  0.52127950  1
  C  C381  1  0.78484479  0.00706119  0.85738332  1
  O  O382  1  0.87227059  0.05782023  0.94272162  1
  O  O383  1  0.52670594  0.09632540  0.65167875  1
  H  H384  1  0.84976237  0.06702948  0.68700998  1
  C  C385  1  0.73592522  0.22362877  0.75178181  1
  C  C386  1  0.77831676  0.02034595  0.56674983  1
  H  H387  1  0.96513014  0.13643500  0.53457928  1
  H  H388  1  0.71583146  0.23556525  0.81506867  1
  C  C389  1  0.64254469  0.23348676  0.55359000  1
  O  O390  1  0.51745135  0.17002386  0.71999092  1
  C  C391  1  0.78817919  0.24750998  0.61479464  1
  Cu  Cu392  1  0.97230812  0.06815150  0.78093328  1
  H  H393  1  0.78408380  0.00437663  0.93229277  1
  H  H394  1  0.58919318  0.23992670  0.66967515  1
  H  H395  1  0.58562345  0.09551759  0.53104670  1
  C  C396  1  0.60369725  0.13232391  0.53831326  1
  C  C397  1  0.99461298  0.06167647  0.51123315  1
  O  O398  1  0.98639772  0.07954964  0.66476854  1
  O  O399  1  0.68724493  0.30818387  0.49866783  1
  Cu  Cu400  1  0.66457221  0.36717202  0.43538922  1
  C  C401  1  0.70063126  0.45828986  0.34836105  1
  C  C402  1  0.58786399  0.30049286  0.36735055  1
  H  H403  1  0.91751334  0.33511406  0.33961658  1
  C  C404  1  0.96180360  0.33859995  0.33236386  1
  N  N405  1  0.90314548  0.25302620  0.29914777  1
  H  H406  1  0.78679310  0.43555273  0.45070079  1
  C  C407  1  0.95729803  0.43169584  0.37603099  1
  O  O408  1  0.63283115  0.32802846  0.35029056  1
  C  C409  1  0.56942797  0.37848087  0.07710200  1
  O  O410  1  0.60774406  0.35316955  0.09740150  1
  C  C411  1  0.53331018  0.46424889  0.02810503  1
  C  C412  1  0.76151451  0.46524215  0.32077322  1
  C  C413  1  0.87208482  0.46966702  0.27115814  1
  C  C414  1  0.79883431  0.44636433  0.38320946  1
  O  O415  1  0.69400827  0.43467735  0.42507737  1
  C  C416  1  0.89823137  0.42815423  0.40755181  1
  O  O417  1  0.51754311  0.36986221  0.09973064  1
  C  C418  1  0.85329407  0.44839086  0.35441935  1
  N  N419  1  0.89411248  0.39294775  0.47212060  1
  H  H420  1  0.91450934  0.46961134  0.25189674  1
  C  C421  1  0.77655794  0.48405675  0.23518621  1
  O  O422  1  0.66397461  0.47091774  0.30087954  1
  Cu  Cu423  1  0.95933674  0.48014282  0.06687007  1
  C  C424  1  0.57529889  0.42831620  0.02525056  1
  O  O425  1  0.55394854  0.31522552  0.41832816  1
  N  N426  1  0.97952827  0.47696102  0.36399621  1
  C  C427  1  0.83167710  0.48606406  0.21227227  1
  C  C428  1  0.98953151  0.38649149  0.34648508  1
  C  C429  1  0.99269660  0.29512131  0.31001836  1
  H  H430  1  0.65591253  0.26302270  0.23268642  1
  H  H431  1  0.85864297  0.38063128  0.49933885  1
  C  C432  1  0.76374999  0.26016821  0.69851075  1
  O  O433  1  0.97238787  0.32800973  0.51500501  1
  O  O434  1  0.63886766  0.31559056  0.62184194  1
  H  H435  1  0.90656981  0.44331240  0.71901019  1
  H  H436  1  0.80784921  0.27718795  0.57233210  1
  H  H437  1  0.93083157  0.37623251  0.50254991  1
  C  C438  1  0.76771651  0.47272749  0.76286726  1
  C  C439  1  0.78443240  0.34258091  0.68054730  1
  N  N440  1  0.76095329  0.30783591  0.72968188  1
  H  H441  1  0.72647146  0.46176498  0.75099505  1
  C  C442  1  0.86981602  0.46122560  0.74658266  1
  N  N443  1  0.81005566  0.36690245  0.61788511  1
  C  C444  1  0.81431502  0.44354723  0.73544434  1
  C  C445  1  0.79992347  0.39801221  0.68113209  1
  C  C446  1  0.62313357  0.43685361  0.97849757  1
  C  C447  1  0.65966719  0.28986853  0.56616101  1
  N  N448  1  0.67609872  0.49525360  0.89471900  1
  C  C449  1  0.62727927  0.48531320  0.93386079  1
  H  H450  1  0.65591805  0.40818149  0.97389036  1
  Cu  Cu451  1  0.75972980  0.56934208  0.06473786  1
  C  C452  1  0.69125727  0.65576637  0.11508091  1
  Cu  Cu453  1  0.64863828  0.62323480  0.28098218  1
  C  C454  1  0.51836756  0.56083700  0.43921604  1
  O  O455  1  0.52798164  0.57084802  0.28212535  1
  H  H456  1  0.87439761  0.60582354  0.11917307  1
  C  C457  1  0.84619849  0.50743027  0.12291164  1
  O  O458  1  0.69766349  0.64694819  0.20042630  1
  C  C459  1  0.88102632  0.64641734  0.12787562  1
  O  O460  1  0.59735420  0.59704699  0.36206093  1
  O  O461  1  0.70413448  0.62184797  0.05953713  1
  C  C462  1  0.91105404  0.66807007  0.20259996  1
  C  C463  1  0.85183170  0.67938143  0.07391338  1
  C  C464  1  0.95610984  0.65098812  0.32746215  1
  C  C465  1  0.67108263  0.70385326  0.07297897  1
  H  H466  1  0.92331042  0.67475593  0.35727829  1
  C  C467  1  0.64041229  0.69576610  0.41890236  1
  N  N468  1  0.94308260  0.63397463  0.24759145  1
  O  O469  1  0.65144424  0.68788801  0.33712263  1
  C  C470  1  0.86023357  0.73180495  0.08177258  1
  H  H471  1  0.64985770  0.74659917  0.19794263  1
  C  C472  1  0.91642715  0.72250258  0.21533828  1
  O  O473  1  0.89589109  0.51702340  0.10195794  1
  C  C474  1  0.65344515  0.74559843  0.12427834  1
  C  C475  1  0.59559568  0.73179797  0.44678715  1
  C  C476  1  0.54839374  0.57671304  0.35278396  1
  O  O477  1  0.80816169  0.51739581  0.07044144  1
  O  O478  1  0.65845318  0.66524189  0.47630240  1
  H  H479  1  0.94224227  0.73990823  0.27109715  1
  H  H480  1  0.74323483  0.50092954  0.19300957  1
  Cu  Cu481  1  0.73899733  0.70143387  0.74214210  1
  C  C482  1  0.83282182  0.54009168  0.81688112  1
  N  N483  1  0.69209864  0.69723116  0.56920746  1
  O  O484  1  0.80149428  0.70006577  0.66759015  1
  O  O485  1  0.67026415  0.70322238  0.79304225  1
  N  N486  1  0.75102090  0.60675793  0.84624726  1
  C  C487  1  0.73914938  0.55607496  0.83886943  1
  C  C488  1  0.78096134  0.52015648  0.80427437  1
  H  H489  1  0.88412457  0.65091041  0.70454747  1
  C  C490  1  0.90199269  0.67840396  0.75146599  1
  C  C491  1  0.94548633  0.66839064  0.81423519  1
  N  N492  1  0.69937758  0.67015403  0.63290183  1
  C  C493  1  0.92887097  0.53373906  0.82507778  1
  O  O494  1  0.79790880  0.68345255  0.94445353  1
  H  H495  1  0.68520628  0.67063363  0.94381553  1
  H  H496  1  0.90924595  0.59911273  0.73940404  1
  C  C497  1  0.68652762  0.54305650  0.87598918  1
  N  N498  1  0.76203217  0.65248104  0.85012718  1
  C  C499  1  0.93560947  0.58344073  0.79186848  1
  C  C500  1  0.53684733  0.51224707  0.98433107  1
  N  N501  1  0.96072448  0.61890660  0.83885576  1
  C  C502  1  0.52426138  0.55777758  0.60055467  1
  H  H503  1  0.59451249  0.57838282  0.51412051  1
  H  H504  1  0.83831440  0.57905305  0.84909591  1
  C  C505  1  0.96853294  0.70870245  0.86508474  1
  N  N506  1  0.94746125  0.51873863  0.90674893  1
  H  H507  1  0.65968570  0.57392853  0.90501777  1
  H  H508  1  0.60492458  0.71450451  0.58739936  1
  C  C509  1  0.58377370  0.52163742  0.93549551  1
  O  O510  1  0.59955769  0.57874425  0.69021562  1
  C  C511  1  0.64659569  0.74410645  0.83128000  1
  C  C512  1  0.58551610  0.73859024  0.53762156  1
  O  O513  1  0.81573976  0.60631275  0.99534045  1
  H  H514  1  0.58775899  0.55754127  0.89650540  1
  C  C515  1  0.66946853  0.70553258  0.97896410  1
  C  C516  1  0.55380090  0.56510820  0.68879463  1
  C  C517  1  0.88529636  0.72893020  0.74015513  1
  C  C518  1  0.64619048  0.74707947  0.93327670  1
  C  C519  1  0.54995229  0.56515731  0.51642255  1
  O  O520  1  0.52458530  0.55756642  0.76330117  1
  N  N521  1  0.97255050  0.53486896  0.97455174  1
  C  C522  1  0.81876755  0.65481732  0.99931693  1
  C  C523  1  0.87764004  0.50970352  0.78538379  1
  C  C524  1  0.83657920  0.73725058  0.67531239  1
  H  H525  1  0.63015557  0.84242330  0.27662723  1
  N  N526  1  0.61731713  0.82919559  0.12103658  1
  H  H527  1  0.59041246  0.75890676  0.31088231  1
  C  C528  1  0.60277839  0.91590626  0.13736888  1
  C  C529  1  0.51300473  0.83045085  0.32102400  1
  C  C530  1  0.62751757  0.92559564  0.22769381  1
  C  C531  1  0.64146247  0.97843864  0.23971196  1
  C  C532  1  0.63980724  0.88302907  0.28647996  1
  C  C533  1  0.66932781  0.89653995  0.36324203  1
  C  C534  1  0.59795257  0.87088973  0.08571204  1
  Cu  Cu535  1  0.97028800  0.87853208  0.27997270  1
  C  C536  1  0.69719091  0.85174659  0.41721387  1
  O  O537  1  0.88701010  0.84478463  0.11915485  1
  C  C538  1  0.78073655  0.96203464  0.22709993  1
  C  C539  1  0.79293776  0.89047112  0.33013483  1
  N  N540  1  0.58385583  0.95737570  0.08999744  1
  C  C541  1  0.67708281  0.94835669  0.38850256  1
  O  O542  1  0.71418147  0.90849174  0.01724132  1
  H  H543  1  0.57869714  0.86924480  0.01630264  1
  C  C544  1  0.90497687  0.81085943  0.16228299  1
  H  H545  1  0.71232705  0.85154329  0.14546404  1
  C  C546  1  0.73878108  0.87572349  0.19077731  1
  C  C547  1  0.75997938  0.85842316  0.27440740  1
  C  C548  1  0.72712616  0.80651019  0.38003784  1
  C  C549  1  0.66445536  0.98987686  0.32621320  1
  C  C550  1  0.73912648  0.94401808  0.07786701  1
  O  O551  1  0.93764011  0.82139439  0.22950083  1
  C  C552  1  0.89205773  0.75348939  0.15127501  1
  C  C553  1  0.75440356  0.92621975  0.17058445  1
  C  C554  1  0.63231339  0.78766649  0.07433132  1
  C  C555  1  0.51972974  0.80527107  0.48736341  1
  C  C556  1  0.79921526  0.94171367  0.30744561  1
  H  H557  1  0.70097134  0.95828451  0.45708165  1
  O  O558  1  0.85343087  0.95078758  0.43041496  1
  N  N559  1  0.74843335  0.80792042  0.30233412  1
  H  H560  1  0.80636325  0.88027367  0.39802216  1
  C  C561  1  0.83235963  0.97548973  0.37181287  1
  O  O562  1  0.53059061  0.82100428  0.24269598  1
  C  C563  1  0.53365146  0.79845761  0.39835379  1
  H  H564  1  0.72875042  0.76720594  0.41119222  1
  H  H565  1  0.83768306  0.75869822  0.03759074  1
  C  C566  1  0.99275441  0.98893365  0.28531718  1
  C  C567  1  0.57338605  0.76229588  0.37900448  1
  O  O568  1  0.98872973  0.99327042  0.20776868  1
  O  O569  1  0.73505809  0.98994722  0.06522931  1
  O  O570  1  0.99458628  0.94228256  0.32167964  1
  C  C571  1  0.61259729  0.90903927  0.78291610  1
  C  C572  1  0.97461429  0.80084585  0.89918317  1
  C  C573  1  0.91289520  0.77072590  0.77626641  1
  C  C574  1  0.55785519  0.89487463  0.83281359  1
  H  H575  1  0.69786615  0.93112596  0.97303956  1
  N  N576  1  0.69349380  0.96075784  0.84427392  1
  O  O577  1  0.51935039  0.95472092  0.60755477  1
  C  C578  1  0.54319480  0.77359844  0.55655511  1
  N  N579  1  0.60947664  0.88914988  0.70224642  1
  H  H580  1  0.61418273  0.82443892  0.93948687  1
  O  O581  1  0.74358492  0.99559557  0.53180000  1
  O  O582  1  0.82913530  0.77744699  0.63864857  1
  H  H583  1  0.54597550  0.95111864  0.93686633  1
  N  N584  1  0.66434097  0.87565107  0.64212606  1
  H  H585  1  0.90344704  0.80960184  0.75044866  1
  H  H586  1  0.55332606  0.83406904  0.72980014  1
  C  C587  1  0.53214325  0.85235241  0.79016824  1
  H  H588  1  0.71083569  0.96347300  0.66945939  1
  O  O589  1  0.96107859  0.84486398  0.89749945  1
  N  N590  1  0.64990776  0.87766125  0.56165385  1
  C  C591  1  0.52708944  0.91927224  0.89842655  1
  N  N592  1  0.53069280  0.78402437  0.64564516  1
  C  C593  1  0.65750719  0.93534473  0.82370798  1
  C  C594  1  0.62866959  0.79010075  0.98063980  1
  O  O595  1  0.62184566  0.77500474  0.78834497  1
  C  C596  1  0.95208540  0.75866741  0.84491400  1
  C  C597  1  0.73964815  0.98469949  0.70960029  1
  C  C598  1  0.74071657  0.98401488  0.80357034  1
  N  N599  1  0.69453069  0.84496132  0.50239025  1
