# generated using pymatgen
data_Zn3H24C50(N2O5)3
_symmetry_space_group_name_H-M   'P 1'
_cell_length_a   17.55242885
_cell_length_b   13.28584612
_cell_length_c   28.28952602
_cell_angle_alpha   90.00000000
_cell_angle_beta   90.00000000
_cell_angle_gamma   90.00000000
_symmetry_Int_Tables_number   1
_chemical_formula_structural   Zn3H24C50(N2O5)3
_chemical_formula_sum   'Zn12 H96 C200 N24 O60'
_cell_volume   6597.08546313
_cell_formula_units_Z   4
loop_
 _symmetry_equiv_pos_site_id
 _symmetry_equiv_pos_as_xyz
  1  'x, y, z'
loop_
 _atom_site_type_symbol
 _atom_site_label
 _atom_site_symmetry_multiplicity
 _atom_site_fract_x
 _atom_site_fract_y
 _atom_site_fract_z
 _atom_site_occupancy
  H  H0  1  0.26189837  0.46858401  0.00220647  1
  C  C1  1  0.04646173  0.41012572  0.23188412  1
  C  C2  1  0.48468658  0.07918084  0.20923736  1
  O  O3  1  0.43486563  0.24555012  0.14362787  1
  C  C4  1  0.36690386  0.45598816  0.10706400  1
  H  H5  1  0.41455271  0.32312733  0.07505682  1
  H  H6  1  0.09970378  0.40722433  0.20949132  1
  H  H7  1  0.24720511  0.19633465  0.07807095  1
  C  C8  1  0.28555485  0.13311984  0.08727627  1
  C  C9  1  0.26781080  0.07839945  0.12827830  1
  H  H10  1  0.31494297  0.41988499  0.11988627  1
  C  C11  1  0.42133730  0.40319860  0.08230189  1
  C  C12  1  0.35441554  0.11277280  0.06373852  1
  O  O13  1  0.17244581  0.30245863  0.03464724  1
  H  H14  1  0.21707808  0.10040659  0.14796673  1
  O  O15  1  0.09124338  0.42257584  0.01470666  1
  H  H16  1  0.42561341  0.08151666  0.19976246  1
  C  C17  1  0.48806157  0.45179254  0.06360645  1
  C  C18  1  0.49697436  0.22919443  0.15846757  1
  C  C19  1  0.40329622  0.02581399  0.07586438  1
  C  C20  1  0.37436834  0.17262904  0.02168165  1
  C  C21  1  0.14027649  0.35429669  0.00513733  1
  O  O22  1  0.46106450  0.00216551  0.05522826  1
  C  C23  1  0.31864491  0.00584162  0.14497520  1
  H  H24  1  0.46107819  0.06896705  0.00582562  1
  N  N25  1  0.33150589  0.25553505  0.00703924  1
  H  H26  1  0.43393307  0.00440341  0.49375065  1
  H  H27  1  0.45547610  0.35682095  0.26320393  1
  H  H28  1  0.36545308  0.11667785  0.31273148  1
  O  O29  1  0.49135445  0.43325716  0.45060788  1
  H  H30  1  0.02236681  0.05036841  0.30890908  1
  C  C31  1  0.41578870  0.07808569  0.32584679  1
  C  C32  1  0.04693256  0.45844258  0.27568521  1
  H  H33  1  0.49441634  0.19848818  0.31475081  1
  C  C34  1  0.48756895  0.12468218  0.33040834  1
  O  O35  1  0.02561496  0.34255257  0.48851473  1
  C  C36  1  0.39579003  0.32894037  0.73249494  1
  C  C37  1  0.32598903  0.32458501  0.65796945  1
  C  C38  1  0.03541796  0.21676731  0.67484113  1
  C  C39  1  0.32518527  0.31883471  0.70795888  1
  H  H40  1  0.08126484  0.18707000  0.65343293  1
  H  H41  1  0.40000231  0.33751521  0.59326498  1
  C  C42  1  0.04468743  0.26449372  0.71886396  1
  C  C43  1  0.39580388  0.33518326  0.63325586  1
  N  N44  1  0.18734079  0.30096118  0.71215558  1
  H  H45  1  0.27574833  0.32014450  0.63583861  1
  C  C46  1  0.03253744  0.39417206  0.56988479  1
  C  C47  1  0.46398329  0.34089017  0.65816038  1
  O  O48  1  0.16843224  0.17370148  0.55268513  1
  C  C49  1  0.04845714  0.44048129  0.65145820  1
  C  C50  1  0.14412594  0.49541713  0.59613854  1
  C  C51  1  0.21271449  0.22657814  0.55716492  1
  H  H52  1  0.12512932  0.44573383  0.52481332  1
  C  C53  1  0.10103136  0.44490989  0.56183130  1
  C  C54  1  0.12232004  0.29375120  0.73538826  1
  C  C55  1  0.25180033  0.31578887  0.73767472  1
  C  C56  1  0.00515967  0.39475011  0.61673996  1
  H  H57  1  0.03380918  0.43861746  0.68805886  1
  C  C58  1  0.11960865  0.49551899  0.64455363  1
  C  C59  1  0.46410873  0.33763730  0.70822930  1
  H  H60  1  0.47915675  0.24193363  0.86316960  1
  H  H61  1  0.39775247  0.33102885  0.77298197  1
  C  C62  1  0.33356603  0.42324548  0.90002381  1
  H  H63  1  0.24321920  0.18890821  0.87352606  1
  C  C64  1  0.20955101  0.24932436  0.88857331  1
  C  C65  1  0.36283758  0.29803435  0.96725028  1
  C  C66  1  0.33507091  0.40392510  0.95089517  1
  N  N67  1  0.25774333  0.32038561  0.78448974  1
  H  H68  1  0.12924128  0.46362888  0.85111022  1
  H  H69  1  0.22880346  0.20001076  0.96225429  1
  C  C70  1  0.19980952  0.25649649  0.93711996  1
  H  H71  1  0.31465624  0.35933614  0.87640441  1
  H  H72  1  0.09341953  0.47813630  0.93874393  1
  N  N73  1  0.41960316  0.27236123  0.93831888  1
  N  N74  1  0.43067751  0.13694050  0.99454010  1
  C  C75  1  0.18220204  0.32155231  0.85734028  1
  C  C76  1  0.14337011  0.40538971  0.87659115  1
  N  N77  1  0.12334640  0.30848069  0.78252419  1
  C  C78  1  0.44907264  0.18652628  0.95418507  1
  C  C79  1  0.19136788  0.31783278  0.80176814  1
  C  C80  1  0.16083444  0.34088824  0.95374922  1
  C  C81  1  0.34543486  0.10331371  0.81317018  1
  C  C82  1  0.12690407  0.41518804  0.92384030  1
  C  C83  1  0.38357827  0.49471371  0.87290758  1
  C  C84  1  0.31849642  0.47999732  0.98491865  1
  Zn  Zn85  1  0.42853211  0.49859546  0.94223509  1
  O  O86  1  0.38153313  0.15495787  0.79568595  1
  C  C87  1  0.44570321  0.60017387  0.10604636  1
  C  C88  1  0.32018727  0.61267016  0.15046801  1
  C  C89  1  0.30661097  0.95855447  0.19297860  1
  O  O90  1  0.35333893  0.89474152  0.20697924  1
  O  O91  1  0.33183034  0.69755598  0.16802172  1
  Zn  Zn92  1  0.19068395  0.63798548  0.21532055  1
  C  C93  1  0.38265932  0.98258268  0.12096203  1
  O  O94  1  0.08535501  0.84063809  0.20616331  1
  H  H95  1  0.45288181  0.68283452  0.11384933  1
  H  H96  1  0.42059696  0.92085911  0.13247053  1
  C  C97  1  0.49875259  0.54900677  0.07726115  1
  O  O98  1  0.24707937  0.97908135  0.21395331  1
  C  C99  1  0.04673281  0.76120654  0.20696146  1
  O  O100  1  0.07939134  0.68066556  0.19812713  1
  O  O101  1  0.25836256  0.56771954  0.15531040  1
  C  C102  1  0.37815644  0.55701480  0.12075498  1
  H  H103  1  0.32209019  0.61539483  0.03515460  1
  H  H104  1  0.47667962  0.92872435  0.23792588  1
  Zn  Zn105  1  0.33451782  0.74848630  0.24335351  1
  C  C106  1  0.35038551  0.58233305  0.00210924  1
  C  C107  1  0.38544537  0.75724760  0.42040943  1
  C  C108  1  0.32795649  0.83510621  0.43407636  1
  O  O109  1  0.10118299  0.91257504  0.31702122  1
  C  C110  1  0.46234351  0.78294925  0.43650427  1
  O  O111  1  0.42664298  0.65103120  0.26619402  1
  C  C112  1  0.33419071  0.91727428  0.31903142  1
  Zn  Zn113  1  0.17354286  0.70609514  0.32941726  1
  C  C114  1  0.24796001  0.81504975  0.42259150  1
  C  C115  1  0.34284976  0.91901974  0.46012781  1
  H  H116  1  0.46099299  0.83067336  0.35214522  1
  O  O117  1  0.22753184  0.71191255  0.40040946  1
  O  O118  1  0.19911851  0.87570679  0.42980655  1
  O  O119  1  0.12470588  0.55347883  0.33058006  1
  H  H120  1  0.28528105  0.68128756  0.39887324  1
  O  O121  1  0.04877391  0.76612146  0.32944057  1
  C  C122  1  0.04173395  0.85937573  0.32423703  1
  O  O123  1  0.36928041  0.68111467  0.39860137  1
  C  C124  1  0.47481622  0.86715380  0.46222110  1
  O  O125  1  0.37365921  0.51508798  0.28730615  1
  C  C126  1  0.41857339  0.93814236  0.47376777  1
  O  O127  1  0.27312843  0.96438677  0.31175907  1
  O  O128  1  0.33878595  0.82385938  0.31503622  1
  C  C129  1  0.43025420  0.55588950  0.27308286  1
  C  C130  1  0.46898008  0.91357538  0.34730846  1
  Zn  Zn131  1  0.18364883  0.87575893  0.26435989  1
  O  O132  1  0.22273215  0.73582184  0.26134718  1
  C  C133  1  0.12313296  0.50381334  0.29319859  1
  C  C134  1  0.40726646  0.97248019  0.32905633  1
  O  O135  1  0.17295780  0.50638261  0.26286088  1
  H  H136  1  0.29777800  0.97456834  0.47031103  1
  H  H137  1  0.47035375  0.51367822  0.36328130  1
  N  N138  1  0.13405726  0.55834414  0.72621364  1
  C  C139  1  0.37617025  0.61725648  0.64514204  1
  C  C140  1  0.36411345  0.58611890  0.69343508  1
  N  N141  1  0.23486903  0.54800071  0.67241230  1
  C  C142  1  0.28063667  0.57109487  0.70808622  1
  H  H143  1  0.32571754  0.63242483  0.62324561  1
  C  C144  1  0.44947193  0.62874542  0.62906550  1
  O  O145  1  0.32944628  0.69006657  0.54504926  1
  C  C146  1  0.42745140  0.56878300  0.72390004  1
  C  C147  1  0.16160403  0.54140597  0.68426517  1
  H  H148  1  0.46364387  0.65730286  0.59271320  1
  C  C149  1  0.36521261  0.75276475  0.55091744  1
  H  H150  1  0.19542687  0.53376851  0.58420995  1
  O  O151  1  0.41000860  0.52528714  0.83730609  1
  O  O152  1  0.03151445  0.71019643  0.96085442  1
  C  C153  1  0.20386382  0.62121129  0.89193028  1
  H  H154  1  0.24351655  0.60661963  0.92084386  1
  C  C155  1  0.21879991  0.59327090  0.84542588  1
  C  C156  1  0.16247311  0.60347036  0.80847060  1
  C  C157  1  0.41442695  0.63730448  0.98470345  1
  C  C158  1  0.18440953  0.58208318  0.75927346  1
  O  O159  1  0.15453057  0.69580054  0.98587586  1
  C  C160  1  0.13001457  0.65961973  0.90209956  1
  C  C161  1  0.11250887  0.68543697  0.95314048  1
  H  H162  1  0.27334481  0.56703579  0.83479594  1
  H  H163  1  0.41563172  0.55512989  0.76038624  1
  H  H164  1  0.04564759  0.65363224  0.79332885  1
  C  C165  1  0.08798353  0.63924265  0.82142013  1
  C  C166  1  0.07088878  0.66554933  0.86817739  1
  H  H167  1  0.03583146  0.72754958  0.99460207  1
  H  H168  1  0.01439780  0.69244626  0.88053282  1
  C  C169  1  0.48081725  0.64024077  0.95561795  1
  N  N170  1  0.25980758  0.58452905  0.75259269  1
  O  O171  1  0.82495844  0.11346708  0.20639966  1
  O  O172  1  0.97807178  0.31829649  0.17261014  1
  H  H173  1  0.80488753  0.22131464  0.08401418  1
  C  C174  1  0.63951128  0.41595082  0.23710767  1
  C  C175  1  0.60065947  0.10791368  0.08045967  1
  N  N176  1  0.84059020  0.35151882  0.16984514  1
  C  C177  1  0.76993249  0.35298590  0.14771221  1
  H  H178  1  0.70845612  0.06619691  0.23120300  1
  C  C179  1  0.71737710  0.37418839  0.21549687  1
  H  H180  1  0.65827840  0.20374789  0.17941585  1
  N  N181  1  0.55804818  0.30872346  0.05626535  1
  C  C182  1  0.53422234  0.15513455  0.18978409  1
  C  C183  1  0.76934314  0.37413028  0.09594967  1
  C  C184  1  0.85710326  0.42418636  0.00298992  1
  C  C185  1  0.70154185  0.12366750  0.01937300  1
  Zn  Zn186  1  0.73986544  0.41009702  0.02808847  1
  H  H187  1  0.89633451  0.34978639  0.15209093  1
  C  C188  1  0.79346811  0.47869023  0.08615026  1
  C  C189  1  0.60115999  0.25797762  0.02397125  1
  C  C190  1  0.53831361  0.39057071  0.02982112  1
  N  N191  1  0.70101519  0.35418744  0.16892961  1
  C  C192  1  0.61602429  0.14710613  0.19626432  1
  N  N193  1  0.77767616  0.38300918  0.24433222  1
  C  C194  1  0.83976582  0.36984623  0.22038571  1
  C  C195  1  0.63416248  0.16100820  0.04403728  1
  H  H196  1  0.54963338  0.14560446  0.09532011  1
  C  C197  1  0.97954964  0.36676924  0.21075448  1
  C  C198  1  0.79750959  0.29266255  0.06406735  1
  Zn  Zn199  1  0.58427254  0.31661357  0.13695628  1
  C  C200  1  0.73403894  0.03649742  0.03566158  1
  C  C201  1  0.84218331  0.31905051  0.01902856  1
  C  C202  1  0.82773139  0.05036786  0.18322017  1
  C  C203  1  0.64400914  0.07100539  0.22566272  1
  C  C204  1  0.91493634  0.39570886  0.24121237  1
  C  C205  1  0.62815178  0.01573699  0.09947878  1
  H  H206  1  0.78434585  0.01006587  0.01558171  1
  H  H207  1  0.57840382  0.27319601  0.23735290  1
  C  C208  1  0.62939307  0.11045285  0.33968441  1
  H  H209  1  0.89226066  0.14703889  0.30987862  1
  C  C210  1  0.65277821  0.30278073  0.45594381  1
  H  H211  1  0.61877596  0.40862876  0.34665652  1
  C  C212  1  0.75939546  0.07939094  0.33392000  1
  O  O213  1  0.81283736  0.44114360  0.49855527  1
  C  C214  1  0.73157820  0.33955297  0.35771970  1
  C  C215  1  0.72940627  0.32034262  0.46986688  1
  C  C216  1  0.67839305  0.42089691  0.35256865  1
  C  C217  1  0.80526860  0.35237539  0.38011352  1
  H  H218  1  0.57559213  0.19176294  0.44208541  1
  C  C219  1  0.83171149  0.44590616  0.38955389  1
  N  N220  1  0.68866082  0.04402207  0.33565622  1
  C  C221  1  0.89802528  0.06746501  0.31631629  1
  H  H222  1  0.61065484  0.36206061  0.44742986  1
  H  H223  1  0.88945367  0.45836264  0.40461129  1
  N  N224  1  0.63803657  0.20910671  0.34348988  1
  C  C225  1  0.63512294  0.20302192  0.45484530  1
  C  C226  1  0.71121946  0.23512228  0.34264704  1
  C  C227  1  0.74941137  0.42705039  0.48035737  1
  H  H228  1  0.84336411  0.28800679  0.38784072  1
  C  C229  1  0.68449783  0.11809037  0.46303404  1
  N  N230  1  0.77275865  0.17899390  0.33561496  1
  H  H231  1  0.84638480  0.25994336  0.47508799  1
  C  C232  1  0.82903524  0.01403635  0.32450756  1
  C  C233  1  0.55061696  0.06343374  0.34145901  1
  C  C234  1  0.76439324  0.14092791  0.46612842  1
  O  O235  1  0.69581164  0.49165964  0.48270555  1
  H  H236  1  0.85925703  0.46992844  0.30261345  1
  C  C237  1  0.78469907  0.24339290  0.47002633  1
  C  C238  1  0.96764009  0.01633970  0.31703937  1
  C  C239  1  0.91269099  0.44811236  0.28449258  1
  H  H240  1  0.80646035  0.07856756  0.46846345  1
  C  C241  1  0.57829502  0.35515048  0.25011633  1
  C  C242  1  0.65577798  0.01301582  0.47029264  1
  C  C243  1  0.50904883  0.39809679  0.26195949  1
  C  C244  1  0.98289380  0.47979293  0.30347265  1
  O  O245  1  0.81559834  0.23857338  0.61502720  1
  Zn  Zn246  1  0.84548487  0.36842594  0.56496499  1
  O  O247  1  0.76712645  0.29555490  0.68062024  1
  C  C248  1  0.82278595  0.26347015  0.65606022  1
  C  C249  1  0.96300028  0.21044710  0.65529171  1
  C  C250  1  0.54101361  0.34787481  0.63391192  1
  C  C251  1  0.90668536  0.29667907  0.72264706  1
  H  H252  1  0.95292625  0.35454723  0.62520954  1
  O  O253  1  0.59800688  0.33999650  0.66100945  1
  H  H254  1  0.69428066  0.35761883  0.58462090  1
  C  C255  1  0.90071960  0.25593555  0.67733020  1
  O  O256  1  0.54761812  0.36532641  0.59177745  1
  O  O257  1  0.71801230  0.42097699  0.59245056  1
  H  H258  1  0.95247228  0.16893452  0.62237969  1
  O  O259  1  0.93075431  0.29877089  0.53170190  1
  H  H260  1  0.51576198  0.34020054  0.72746550  1
  Zn  Zn261  1  0.70428693  0.44125190  0.67095543  1
  Zn  Zn262  1  0.62586165  0.48267904  0.55375880  1
  C  C263  1  0.99536457  0.34079336  0.52653091  1
  O  O264  1  0.73729930  0.42721855  0.74835635  1
  C  C265  1  0.97864358  0.29765445  0.74553356  1
  H  H266  1  0.85394022  0.32360743  0.73979098  1
  H  H267  1  0.66718251  0.24590616  0.89338670  1
  C  C268  1  0.63547661  0.40034940  0.91358359  1
  C  C269  1  0.60764242  0.37328155  0.96260767  1
  C  C270  1  0.66702456  0.32634053  0.88225045  1
  C  C271  1  0.62678827  0.04298715  0.91153505  1
  C  C272  1  0.69066299  0.35631926  0.83628582  1
  H  H273  1  0.56323182  0.06536993  0.98160143  1
  C  C274  1  0.87951501  0.45019673  0.94909289  1
  C  C275  1  0.52201684  0.18438785  0.87538566  1
  N  N276  1  0.62846667  0.28380956  0.97953488  1
  O  O277  1  0.89401168  0.40014059  0.91473111  1
  H  H278  1  0.71027036  0.30274301  0.80919649  1
  C  C279  1  0.56792542  0.07686369  0.94247214  1
  C  C280  1  0.63133200  0.08271795  0.86760136  1
  C  C281  1  0.58376222  0.15947360  0.84829225  1
  O  O282  1  0.72206167  0.09632078  0.80141356  1
  C  C283  1  0.51330091  0.14295440  0.92258434  1
  C  C284  1  0.68951773  0.46107163  0.82481970  1
  H  H285  1  0.72296554  0.16582269  0.98785614  1
  H  H286  1  0.98432397  0.33357840  0.78015117  1
  H  H287  1  0.58423344  0.18906061  0.81133345  1
  Zn  Zn288  1  0.97867784  0.43854592  0.99263505  1
  N  N289  1  0.56111977  0.43163212  0.98750817  1
  O  O290  1  0.93826638  0.13923562  0.95471168  1
  C  C291  1  0.72696511  0.49546627  0.77869292  1
  C  C292  1  0.70103289  0.04199329  0.83539007  1
  C  C293  1  0.92419636  0.08156334  0.97881819  1
  H  H294  1  0.87187396  0.25783930  0.99762077  1
  O  O295  1  0.62347153  0.68696111  0.17693551  1
  C  C296  1  0.75512399  0.91098754  0.09647002  1
  H  H297  1  0.95750956  0.60590674  0.22647123  1
  C  C298  1  0.92526746  0.67600183  0.22877749  1
  H  H299  1  0.69171813  0.57211471  0.23899756  1
  C  C300  1  0.70529957  0.98917384  0.07864581  1
  O  O301  1  0.81779129  0.88036762  0.09047899  1
  H  H302  1  0.79391938  0.53202528  0.11566047  1
  O  O303  1  0.66783468  0.61744910  0.10610982  1
  Zn  Zn304  1  0.70712596  0.86168435  0.15784667  1
  C  C305  1  0.84938718  0.67684006  0.24120550  1
  H  H306  1  0.54661724  0.59653694  0.06546087  1
  C  C307  1  0.93227764  0.86523849  0.22107116  1
  C  C308  1  0.64678898  0.65069831  0.14149470  1
  H  H309  1  0.86740959  0.57936856  0.03532408  1
  O  O310  1  0.60188048  0.96022349  0.12995309  1
  C  C311  1  0.51445115  0.99633938  0.23076102  1
  N  N312  1  0.69742822  0.86653177  0.23608887  1
  C  C313  1  0.59434839  0.99009368  0.23843791  1
  C  C314  1  0.96251116  0.76981412  0.21948145  1
  H  H315  1  0.81690718  0.60755061  0.24887606  1
  C  C316  1  0.83715688  0.50270307  0.03865566  1
  H  H317  1  0.96973396  0.93103232  0.21419218  1
  C  C318  1  0.85819952  0.87042970  0.24106355  1
  C  C319  1  0.63890171  0.52273769  0.24609520  1
  C  C320  1  0.81972905  0.77591444  0.24906246  1
  H  H321  1  0.83308478  0.94567450  0.24923850  1
  C  C322  1  0.57201702  0.56748238  0.26158992  1
  C  C323  1  0.56202151  0.89984036  0.47375642  1
  C  C324  1  0.71351883  0.51476998  0.35452544  1
  C  C325  1  0.81042111  0.63584705  0.38758007  1
  N  N326  1  0.71338997  0.74090724  0.29966372  1
  H  H327  1  0.58430898  0.91079755  0.36870537  1
  C  C328  1  0.63921151  0.71253738  0.40224845  1
  H  H329  1  0.62726894  0.65321994  0.47270789  1
  H  H330  1  0.79232328  0.73078146  0.47153090  1
  C  C331  1  0.89863569  0.85900993  0.33070822  1
  H  H332  1  0.90407309  0.77753954  0.33657199  1
  H  H333  1  0.68403154  0.77070008  0.40991893  1
  C  C334  1  0.64360858  0.76762243  0.31010643  1
  C  C335  1  0.82903721  0.90959725  0.33496232  1
  C  C336  1  0.50639658  0.50487406  0.26478241  1
  H  H337  1  0.99110344  0.51193444  0.33858871  1
  O  O338  1  0.82645234  0.71944948  0.39517879  1
  C  C339  1  0.61129461  0.64064086  0.43496877  1
  C  C340  1  0.96697897  0.91044084  0.32364394  1
  C  C341  1  0.60997964  0.71024418  0.35540334  1
  H  H342  1  0.77407509  0.87541740  0.34373104  1
  N  N343  1  0.59892481  0.83900796  0.29009619  1
  C  C344  1  0.55468652  0.63454795  0.35226191  1
  C  C345  1  0.55338644  0.57317490  0.42349768  1
  H  H346  1  0.68005384  0.57902876  0.34333608  1
  N  N347  1  0.60138858  0.82568443  0.49224783  1
  C  C348  1  0.52118104  0.51016442  0.46403654  1
  C  C349  1  0.78604258  0.53539904  0.37740188  1
  C  C350  1  0.53698556  0.95900982  0.35434154  1
  N  N351  1  0.70155638  0.94842045  0.49129270  1
  C  C352  1  0.51707964  0.56079683  0.37846086  1
  C  C353  1  0.63019622  0.89344961  0.25682433  1
  C  C354  1  0.73769627  0.79530698  0.26402239  1
  N  N355  1  0.58230688  0.99284478  0.46295723  1
  H  H356  1  0.50988358  0.73251926  0.43076244  1
  H  H357  1  0.56498053  0.64844752  0.26195722  1
  C  C358  1  0.79649118  0.65131572  0.58499269  1
  C  C359  1  0.82797486  0.56987224  0.61430363  1
  C  C360  1  0.70209473  0.78039659  0.57892085  1
  C  C361  1  0.58931821  0.60504552  0.64284736  1
  O  O362  1  0.80360252  0.55982761  0.65434956  1
  O  O363  1  0.64273729  0.58342794  0.67177049  1
  H  H364  1  0.86314308  0.60853856  0.52083016  1
  C  C365  1  0.72122098  0.78665351  0.53007094  1
  O  O366  1  0.53825305  0.52576835  0.50852534  1
  H  H367  1  0.73287243  0.70772435  0.64630084  1
  O  O368  1  0.60075503  0.61606192  0.60053359  1
  C  C369  1  0.81888249  0.65835288  0.53690080  1
  C  C370  1  0.74219165  0.71156930  0.60811119  1
  H  H371  1  0.65760252  0.82998171  0.59163203  1
  C  C372  1  0.50879254  0.60510715  0.66100995  1
  H  H373  1  0.55111847  0.56775549  0.73243901  1
  C  C374  1  0.78106095  0.73027363  0.51048580  1
  C  C375  1  0.50180729  0.57656084  0.70869908  1
  C  C376  1  0.66956755  0.86049242  0.50154983  1
  O  O377  1  0.87577927  0.50737311  0.59815316  1
  C  C378  1  0.93217072  0.56113463  0.73314947  1
  H  H379  1  0.66226874  0.61608602  0.84749459  1
  O  O380  1  0.85953636  0.57429835  0.92993066  1
  C  C381  1  0.77702778  0.64382917  0.95299980  1
  C  C382  1  0.66408281  0.53266876  0.85622214  1
  O  O383  1  0.74160574  0.58173305  0.77158960  1
  H  H384  1  0.62248821  0.56286705  0.92886796  1
  O  O385  1  0.73050006  0.68462579  0.96886489  1
  O  O386  1  0.53655600  0.66934414  0.93483109  1
  C  C387  1  0.63863198  0.50419947  0.90179279  1
  H  H388  1  0.66499147  0.98010241  0.92075315  1
  H  H389  1  0.84237398  0.55629184  0.90126532  1
  O  O390  1  0.95115141  0.53468898  0.76635503  1
  O  O391  1  0.72287356  0.95635152  0.84382888  1
