# generated using pymatgen
data_Zn4H17C32O15
_symmetry_space_group_name_H-M   'P 1'
_cell_length_a   18.07562074
_cell_length_b   22.63279349
_cell_length_c   21.89076451
_cell_angle_alpha   90.00000000
_cell_angle_beta   90.00000000
_cell_angle_gamma   90.00000000
_symmetry_Int_Tables_number   1
_chemical_formula_structural   Zn4H17C32O15
_chemical_formula_sum   'Zn32 H136 C256 O120'
_cell_volume   8955.55097737
_cell_formula_units_Z   8
loop_
 _symmetry_equiv_pos_site_id
 _symmetry_equiv_pos_as_xyz
  1  'x, y, z'
loop_
 _atom_site_type_symbol
 _atom_site_label
 _atom_site_symmetry_multiplicity
 _atom_site_fract_x
 _atom_site_fract_y
 _atom_site_fract_z
 _atom_site_occupancy
  O  O0  1  0.13849261  0.26535966  0.09356915  1
  C  C1  1  0.18384946  0.08554381  0.16671834  1
  C  C2  1  0.03093482  0.35083070  0.11787138  1
  C  C3  1  0.13194250  0.03368334  0.15064934  1
  Zn  Zn4  1  0.33499580  0.27591842  0.08782988  1
  C  C5  1  0.16365286  0.31416512  0.11066822  1
  H  H6  1  0.04718629  0.09838140  0.15958547  1
  C  C7  1  0.20356242  0.48379947  0.00193857  1
  C  C8  1  0.46043175  0.08087313  0.09563522  1
  O  O9  1  0.40144139  0.10909314  0.09922895  1
  H  H10  1  0.16117675  0.04421149  0.04452037  1
  C  C11  1  0.10712335  0.36241814  0.12241007  1
  Zn  Zn12  1  0.34293542  0.14879017  0.17642672  1
  O  O13  1  0.23133139  0.32542301  0.10749196  1
  O  O14  1  0.36673676  0.32432695  0.01240496  1
  C  C15  1  0.12962811  0.42026173  0.13276077  1
  O  O16  1  0.30189121  0.19884231  0.10474462  1
  H  H17  1  0.41957260  0.37494343  0.21154450  1
  H  H18  1  0.36887573  0.01501726  0.14565733  1
  O  O19  1  0.24607964  0.07648183  0.18841728  1
  O  O20  1  0.16533666  0.13855101  0.15768078  1
  C  C21  1  0.07446014  0.46451821  0.13541583  1
  H  H22  1  0.18917782  0.42958790  0.14089122  1
  O  O23  1  0.38324700  0.29223275  0.17817740  1
  Zn  Zn24  1  0.20267013  0.18479295  0.07238118  1
  O  O25  1  0.12027871  0.12217228  0.02853185  1
  C  C26  1  0.47288988  0.01720105  0.11017370  1
  C  C27  1  0.05833450  0.05105373  0.14659825  1
  O  O28  1  0.34276646  0.22504709  0.24371884  1
  O  O29  1  0.40880020  0.09925019  0.24425203  1
  C  C30  1  0.12476350  0.07089430  0.01299009  1
  H  H31  1  0.32886398  0.35389870  0.02389904  1
  H  H32  1  0.01708278  0.30296794  0.11446912  1
  C  C33  1  0.37054753  0.27468380  0.23154913  1
  C  C34  1  0.00147422  0.01024007  0.12921615  1
  H  H35  1  0.08113397  0.20635378  0.01078971  1
  H  H36  1  0.48369694  0.00455070  0.24765103  1
  O  O37  1  0.27942963  0.03369005  0.00482383  1
  C  C38  1  0.15313791  0.41738838  0.41744278  1
  H  H39  1  0.44751687  0.46034941  0.28030023  1
  C  C40  1  0.18415929  0.43000722  0.36127537  1
  C  C41  1  0.12927424  0.06278908  0.35788155  1
  C  C42  1  0.37398310  0.36025571  0.38135164  1
  H  H43  1  0.14341128  0.16092543  0.34133317  1
  C  C44  1  0.11500149  0.12046556  0.31985178  1
  H  H45  1  0.32822048  0.45050350  0.46687935  1
  C  C46  1  0.39924408  0.41510082  0.35965651  1
  C  C47  1  0.18629837  0.30763626  0.42703180  1
  H  H48  1  0.34602736  0.26765626  0.36276608  1
  C  C49  1  0.21140897  0.20197098  0.44217856  1
  H  H50  1  0.20387605  0.39635445  0.32829186  1
  C  C51  1  0.16627330  0.25522334  0.45730860  1
  C  C52  1  0.36223636  0.31034994  0.34352083  1
  C  C53  1  0.14041975  0.35458687  0.44528027  1
  C  C54  1  0.41347336  0.10413821  0.30091746  1
  Zn  Zn55  1  0.27624209  0.10347854  0.39115784  1
  H  H56  1  0.14216458  0.11755128  0.27394835  1
  C  C57  1  0.08314109  0.34937329  0.48818551  1
  H  H58  1  0.45336133  0.04398947  0.42677019  1
  O  O59  1  0.20244218  0.15708621  0.47583248  1
  H  H60  1  0.36602430  0.35656458  0.43168132  1
  O  O61  1  0.19217501  0.04169820  0.35998535  1
  O  O62  1  0.07892342  0.04409578  0.39191368  1
  H  H63  1  0.22832826  0.30949081  0.39124652  1
  O  O64  1  0.26137241  0.20188791  0.40384755  1
  O  O65  1  0.37322331  0.07651343  0.33805657  1
  C  C66  1  0.37614525  0.47615898  0.45582590  1
  C  C67  1  0.47146325  0.14276957  0.32928112  1
  H  H68  1  0.44181160  0.14612272  0.42898530  1
  C  C69  1  0.41480822  0.46914306  0.39926789  1
  C  C70  1  0.37742294  0.31894963  0.28173706  1
  H  H71  1  0.01054923  0.01152621  0.30282432  1
  C  C72  1  0.42043939  0.42010650  0.29783959  1
  H  H73  1  0.05489540  0.12965886  0.31097718  1
  O  O74  1  0.34406874  0.09940947  0.47389028  1
  C  C75  1  0.12915031  0.46559903  0.45549346  1
  C  C76  1  0.19461076  0.48858760  0.33710262  1
  C  C77  1  0.48028074  0.15739706  0.39092996  1
  C  C78  1  0.46048702  0.01097304  0.46312563  1
  C  C79  1  0.40547000  0.37325376  0.25901016  1
  C  C80  1  0.10633874  0.24634144  0.49907045  1
  H  H81  1  0.04471465  0.38714822  0.49776930  1
  H  H82  1  0.10085120  0.45619732  0.49990817  1
  H  H83  1  0.26480174  0.18270758  0.72885741  1
  H  H84  1  0.09109450  0.20016204  0.51437509  1
  O  O85  1  0.08575800  0.19985357  0.69414947  1
  O  O86  1  0.16191527  0.16587490  0.62883507  1
  H  H87  1  0.06068052  0.11160485  0.73306562  1
  Zn  Zn88  1  0.38267019  0.35741882  0.73712141  1
  O  O89  1  0.30763692  0.06645275  0.56054554  1
  C  C90  1  0.13416203  0.20834012  0.65768927  1
  C  C91  1  0.48170767  0.27874076  0.56641531  1
  Zn  Zn92  1  0.25491243  0.14691888  0.56497581  1
  H  H93  1  0.16808948  0.10660282  0.70965044  1
  C  C94  1  0.46290319  0.23038576  0.60072212  1
  C  C95  1  0.38468482  0.20692422  0.61181465  1
  C  C96  1  0.47022970  0.39371695  0.68829503  1
  C  C97  1  0.15694496  0.27267042  0.64740232  1
  H  H98  1  0.43872946  0.46072557  0.61608298  1
  C  C99  1  0.19544001  0.45510498  0.68880647  1
  H  H100  1  0.18782509  0.27748034  0.60394590  1
  H  H101  1  0.10805926  0.30121199  0.63929269  1
  O  O102  1  0.37832971  0.16709310  0.65064660  1
  H  H103  1  0.43934887  0.30088765  0.54120055  1
  C  C104  1  0.06559742  0.29582152  0.51361577  1
  O  O105  1  0.20065717  0.40638813  0.67559083  1
  C  C106  1  0.40756801  0.01554247  0.51065055  1
  C  C107  1  0.48583111  0.32993747  0.70132528  1
  O  O108  1  0.33254112  0.22305806  0.57858991  1
  C  C109  1  0.43344869  0.41381921  0.63254085  1
  O  O110  1  0.39855044  0.38455834  0.59731265  1
  H  H111  1  0.19211015  0.28610362  0.68783663  1
  C  C112  1  0.34858362  0.06188405  0.51533615  1
  O  O113  1  0.40519119  0.31530839  0.85674896  1
  C  C114  1  0.34360330  0.19632397  0.83320519  1
  O  O115  1  0.21946388  0.23224388  0.97071911  1
  C  C116  1  0.28859575  0.15033565  0.81875522  1
  C  C117  1  0.24927296  0.15051757  0.76288784  1
  C  C118  1  0.48561066  0.30118008  0.76505716  1
  O  O119  1  0.21697282  0.31287542  0.91848315  1
  O  O120  1  0.35716380  0.23537869  0.79158146  1
  C  C121  1  0.18083822  0.27475709  0.94733031  1
  O  O122  1  0.36420962  0.20508270  0.88570132  1
  Zn  Zn123  1  0.33561264  0.28728224  0.93013376  1
  C  C124  1  0.26936904  0.11165660  0.86670863  1
  H  H125  1  0.19037268  0.04391330  0.89589541  1
  C  C126  1  0.04769657  0.07718318  0.91958404  1
  C  C127  1  0.07237902  0.13336884  0.89972403  1
  C  C128  1  0.20944010  0.07278118  0.85945851  1
  H  H129  1  0.12128118  0.15231260  0.92169882  1
  C  C130  1  0.41585939  0.29366283  0.80570965  1
  H  H131  1  0.04264814  0.21703934  0.85067442  1
  H  H132  1  0.09804046  0.35548655  0.88517556  1
  C  C133  1  0.02932202  0.16867610  0.86070559  1
  C  C134  1  0.09934481  0.28291842  0.94936228  1
  C  C135  1  0.17221018  0.07143546  0.80197484  1
  C  C136  1  0.06486489  0.32876588  0.91563645  1
  H  H137  1  0.29675057  0.11340568  0.91007286  1
  C  C138  1  0.09916769  0.04085056  0.96162761  1
  C  C139  1  0.05664100  0.24266419  0.98486235  1
  C  C140  1  0.10161894  0.03592122  0.78894187  1
  H  H141  1  0.49638004  0.39020677  0.80456168  1
  O  O142  1  0.25687660  0.45444845  0.99910260  1
  H  H143  1  0.14740066  0.45824251  0.99993712  1
  C  C144  1  0.19823558  0.10576387  0.75250745  1
  C  C145  1  0.05111357  0.06661661  0.75127191  1
  C  C146  1  0.29264580  0.93585986  0.20858065  1
  C  C147  1  0.04268375  0.69044047  0.09396934  1
  C  C148  1  0.10053205  0.93991746  0.11645843  1
  H  H149  1  0.11580150  0.89216249  0.10862781  1
  H  H150  1  0.49308488  0.85145163  0.16179789  1
  Zn  Zn151  1  0.27348320  0.89998865  0.04460386  1
  H  H152  1  0.29449311  0.98503512  0.20747857  1
  C  C153  1  0.41984123  0.92878761  0.15837318  1
  C  C154  1  0.24013777  0.80345436  0.05475209  1
  H  H155  1  0.10325941  0.81665428  0.16561820  1
  C  C156  1  0.07193031  0.65604156  0.03823414  1
  Zn  Zn157  1  0.22638976  0.57827523  0.22612816  1
  H  H158  1  0.38759472  0.80713019  0.17409195  1
  H  H159  1  0.13161750  0.75155198  0.06883117  1
  C  C160  1  0.15931611  0.97572812  0.13592197  1
  C  C161  1  0.08747526  0.74211874  0.10423614  1
  O  O162  1  0.05999987  0.56517080  0.15519667  1
  H  H163  1  0.21497186  0.96320848  0.13224485  1
  C  C164  1  0.02261881  0.95288867  0.11415294  1
  C  C165  1  0.34234438  0.83914944  0.18763467  1
  O  O166  1  0.17395422  0.53601746  0.15627063  1
  C  C167  1  0.10531580  0.52631042  0.15084683  1
  C  C168  1  0.34994909  0.90016180  0.18299470  1
  C  C169  1  0.41443471  0.98712061  0.13729777  1
  C  C170  1  0.00597098  0.76407628  0.18716428  1
  C  C171  1  0.06871019  0.77911490  0.15371891  1
  C  C172  1  0.27948423  0.81135142  0.21186831  1
  H  H173  1  0.27506365  0.76102979  0.20667586  1
  O  O174  1  0.26677688  0.76051948  0.07616831  1
  C  C175  1  0.15064638  0.65150542  0.03422748  1
  O  O176  1  0.28874644  0.65486922  0.22090550  1
  H  H177  1  0.18669738  0.67494504  0.06605912  1
  H  H178  1  0.20854999  0.53414960  0.00336533  1
  O  O179  1  0.44196172  0.58423038  0.24293886  1
  H  H180  1  0.02896708  0.85469497  0.04948633  1
  C  C181  1  0.18738054  0.83672853  0.01481718  1
  C  C182  1  0.48729163  0.89901432  0.14577755  1
  O  O183  1  0.30145030  0.63276551  0.02098817  1
  H  H184  1  0.18044212  0.93643518  0.24785242  1
  C  C185  1  0.22941613  0.91171915  0.23221900  1
  C  C186  1  0.22550792  0.84989884  0.23726084  1
  C  C187  1  0.02337260  0.62485758  0.00195081  1
  C  C188  1  0.24642797  0.98913236  0.00679735  1
  C  C189  1  0.44212516  0.77945108  0.32954187  1
  C  C190  1  0.15755069  0.53536281  0.37388579  1
  C  C191  1  0.33747388  0.70741138  0.30883706  1
  O  O192  1  0.17160880  0.62043994  0.30700784  1
  H  H193  1  0.22662250  0.70889670  0.43817070  1
  H  H194  1  0.41870001  0.92430019  0.29833077  1
  O  O195  1  0.12064075  0.63610460  0.39303572  1
  C  C196  1  0.39662504  0.52436216  0.49005301  1
  Zn  Zn197  1  0.13057162  0.71907559  0.35682143  1
  C  C198  1  0.13813835  0.89517073  0.48312028  1
  H  H199  1  0.44189749  0.78628820  0.27821023  1
  O  O200  1  0.37274586  0.69077094  0.46065985  1
  C  C201  1  0.45604996  0.56131209  0.47661139  1
  H  H202  1  0.11834613  0.56006128  0.46650817  1
  O  O203  1  0.22409696  0.50061647  0.28730464  1
  C  C204  1  0.42331830  0.85447876  0.41773279  1
  Zn  Zn205  1  0.35262099  0.62516337  0.34998664  1
  O  O206  1  0.10821790  0.85442438  0.27952984  1
  Zn  Zn207  1  0.26669028  0.80329415  0.46096232  1
  O  O208  1  0.37345705  0.83641627  0.45167097  1
  O  O209  1  0.16756282  0.76615856  0.27894908  1
  O  O210  1  0.20335464  0.74538246  0.42219687  1
  C  C211  1  0.03468498  0.83095218  0.42934756  1
  C  C212  1  0.13480253  0.52323524  0.43494618  1
  C  C213  1  0.47652999  0.92470180  0.30218126  1
  H  H214  1  0.42961432  0.90462238  0.42634081  1
  H  H215  1  0.29852068  0.74741456  0.30252331  1
  C  C216  1  0.40295236  0.72156966  0.35076080  1
  O  O217  1  0.00903921  0.74720060  0.33885962  1
  C  C218  1  0.46535650  0.83241735  0.36462340  1
  C  C219  1  0.40272695  0.69055080  0.40927468  1
  C  C220  1  0.01723976  0.96240929  0.29466796  1
  C  C221  1  0.14568074  0.59694699  0.35623972  1
  H  H222  1  0.06542942  0.83959608  0.38375445  1
  O  O223  1  0.18657993  0.88166308  0.44764955  1
  Zn  Zn224  1  0.08597291  0.96395818  0.43397791  1
  C  C225  1  0.05607456  0.87585882  0.48049713  1
  C  C226  1  0.16011796  0.82122076  0.26616484  1
  C  C227  1  0.40492731  0.61948692  0.26298899  1
  H  H228  1  0.00136692  0.59367615  0.47201471  1
  Zn  Zn229  1  0.49243250  0.75598738  0.41348440  1
  C  C230  1  0.48682696  0.56025499  0.41779812  1
  C  C231  1  0.46693298  0.51154235  0.38176876  1
  C  C232  1  0.34202870  0.66276745  0.25727401  1
  H  H233  1  0.07692046  0.95490898  0.29899535  1
  H  H234  1  0.37065931  0.98999396  0.60029814  1
  O  O235  1  0.38324021  0.58296034  0.58597384  1
  C  C236  1  0.23533220  0.94497629  0.55350414  1
  C  C237  1  0.40975369  0.97986690  0.56324184  1
  C  C238  1  0.21442416  0.68754664  0.56830251  1
  H  H239  1  0.03823795  0.67145741  0.50943252  1
  C  C240  1  0.02789275  0.68968342  0.66665715  1
  H  H241  1  0.04780498  0.88185634  0.58469456  1
  H  H242  1  0.26047696  0.89679783  0.56205032  1
  C  C243  1  0.09133081  0.65917638  0.52917961  1
  Zn  Zn244  1  0.41179432  0.67010750  0.55367095  1
  O  O245  1  0.16251455  0.93535682  0.54305551  1
  H  H246  1  0.07301101  0.65963562  0.67904988  1
  C  C247  1  0.36167766  0.54080581  0.55265080  1
  H  H248  1  0.09337295  0.74957360  0.61916065  1
  C  C249  1  0.22330374  0.63093641  0.59400707  1
  H  H250  1  0.16875982  0.54636546  0.61596876  1
  C  C251  1  0.09755405  0.60503143  0.56369314  1
  C  C252  1  0.46577709  0.93438328  0.56506273  1
  C  C253  1  0.14670936  0.70032678  0.53508896  1
  H  H254  1  0.24702029  0.97429633  0.59316382  1
  C  C255  1  0.27099313  0.73409313  0.57637092  1
  H  H256  1  0.27714442  0.61991202  0.61437940  1
  O  O257  1  0.32987082  0.72360488  0.60092846  1
  O  O258  1  0.26049964  0.78658473  0.55824071  1
  C  C259  1  0.16472427  0.58991253  0.59426701  1
  C  C260  1  0.03297978  0.56290437  0.55955630  1
  C  C261  1  0.02261849  0.85989321  0.54444590  1
  H  H262  1  0.26476468  0.96092304  0.51151598  1
  H  H263  1  0.05296230  0.52857461  0.65260188  1
  C  C264  1  0.03456264  0.73889141  0.63301540  1
  H  H265  1  0.47027607  0.90429786  0.60332672  1
  H  H266  1  0.49025012  0.82115918  0.55759118  1
  C  C267  1  0.01779872  0.52654294  0.60869776  1
  H  H268  1  0.13417607  0.74308934  0.51352129  1
  O  O269  1  0.30881348  0.51116910  0.56525637  1
  O  O270  1  0.19773169  0.50399990  0.70508668  1
  H  H271  1  0.47729803  0.59294597  0.51035519  1
  O  O272  1  0.03430215  0.53747354  0.86054164  1
  C  C273  1  0.05308404  0.59380067  0.95194412  1
  C  C274  1  0.12130997  0.98382995  0.94774413  1
  H  H275  1  0.09595199  0.96282459  0.90759408  1
  C  C276  1  0.13053983  0.59382068  0.94121186  1
  C  C277  1  0.02020442  0.95567000  0.80027066  1
  H  H278  1  0.15214833  0.57111547  0.89865920  1
  H  H279  1  0.13390546  0.95983635  0.84184842  1
  O  O280  1  0.28618073  0.59261249  0.93229765  1
  C  C281  1  0.08856769  0.98020195  0.81486647  1
  C  C282  1  0.26343946  0.61760555  0.97700117  1
  C  C283  1  0.00478997  0.56199012  0.90636666  1
  C  C284  1  0.17931052  0.95541763  0.98423313  1
  C  C285  1  0.17531019  0.62125441  0.98333100  1
  C  C286  1  0.16928618  0.89121401  0.99625421  1
  O  O287  1  0.04426530  0.87157843  0.86689762  1
  C  C288  1  0.92648982  0.15099984  0.00616968  1
  O  O289  1  0.59947345  0.06315682  0.22236131  1
  O  O290  1  0.52273338  0.10568225  0.08861341  1
  O  O291  1  0.72209135  0.12849735  0.13997147  1
  H  H292  1  0.58829899  0.01321490  0.08270515  1
  H  H293  1  0.90007486  0.33634525  0.20123475  1
  H  H294  1  0.75372615  0.38583079  0.00510552  1
  C  C295  1  0.91136134  0.19405010  0.23413625  1
  O  O296  1  0.64678100  0.33446489  0.03180597  1
  C  C297  1  0.87218947  0.11467524  0.03411310  1
  C  C298  1  0.97820750  0.39593484  0.11904149  1
  C  C299  1  0.68470933  0.31830280  0.08073656  1
  C  C300  1  0.75755977  0.34313326  0.09619760  1
  Zn  Zn301  1  0.60854219  0.13087970  0.14890293  1
  C  C302  1  0.92705984  0.21222306  0.02035102  1
  O  O303  1  0.97023535  0.17466397  0.23082136  1
  O  O304  1  0.76639958  0.04665978  0.09638684  1
  C  C305  1  0.89803836  0.37789537  0.11142312  1
  C  C306  1  0.81660855  0.20207471  0.08608906  1
  C  C307  1  0.86693098  0.34653327  0.16179985  1
  C  C308  1  0.79340587  0.33147800  0.15318908  1
  H  H309  1  0.76897735  0.30873487  0.19186197  1
  H  H310  1  0.77334521  0.22488219  0.11682033  1
  H  H311  1  0.94484105  0.02584456  0.12364252  1
  C  C312  1  0.57554271  0.25544952  0.11693519  1
  C  C313  1  0.82113702  0.14087428  0.07357333  1
  C  C314  1  0.76474246  0.10176785  0.10348723  1
  C  C315  1  0.78432682  0.37816114  0.04830948  1
  C  C316  1  0.85709837  0.39594646  0.05912144  1
  O  O317  1  0.66040286  0.28178665  0.12071078  1
  H  H318  1  0.60293267  0.30506121  0.03063125  1
  O  O319  1  0.55407868  0.22369774  0.15945098  1
  C  C320  1  0.86899190  0.23653115  0.05864733  1
  H  H321  1  0.87365385  0.28272752  0.06462195  1
  O  O322  1  0.54441816  0.26862070  0.06912577  1
  H  H323  1  0.88746882  0.42398663  0.02693326  1
  C  C324  1  0.63207756  0.02014870  0.24337989  1
  O  O325  1  0.70063736  0.01176324  0.23628995  1
  H  H326  1  0.87202531  0.06538126  0.02468908  1
  O  O327  1  0.85313571  0.21585103  0.23923617  1
  H  H328  1  0.96118884  0.48977685  0.13450470  1
  C  C329  1  0.99959012  0.45552371  0.12864081  1
  O  O330  1  0.70719280  0.38412162  0.24301404  1
  H  H331  1  0.50812371  0.16156214  0.23921614  1
  H  H332  1  0.75395492  0.49465343  0.20751998  1
  O  O333  1  0.79783901  0.41653976  0.29994192  1
  C  C334  1  0.61084391  0.40597879  0.43568636  1
  O  O335  1  0.85051589  0.47119016  0.43482354  1
  C  C336  1  0.58171786  0.35569562  0.46242793  1
  C  C337  1  0.63645234  0.45162079  0.47283909  1
  H  H338  1  0.64061352  0.29784494  0.28737088  1
  C  C339  1  0.68569561  0.26011386  0.43579302  1
  C  C340  1  0.58494419  0.19682562  0.30778953  1
  C  C341  1  0.65404389  0.25871135  0.37786811  1
  C  C342  1  0.59360403  0.21361627  0.37060069  1
  H  H343  1  0.56890362  0.31522632  0.43606310  1
  C  C344  1  0.74309959  0.30242279  0.44491546  1
  H  H345  1  0.80338178  0.37551406  0.41120622  1
  C  C346  1  0.67061391  0.30041565  0.33001727  1
  C  C347  1  0.75997880  0.34235861  0.40058207  1
  H  H348  1  0.61928918  0.41219760  0.38560597  1
  C  C349  1  0.72441646  0.34038347  0.34312487  1
  C  C350  1  0.74120130  0.38339936  0.29037870  1
  H  H351  1  0.66824070  0.22927328  0.47108259  1
  Zn  Zn352  1  0.80138815  0.49180562  0.34866349  1
  C  C353  1  0.52336546  0.16652780  0.28759372  1
  H  H354  1  0.62426345  0.21445259  0.27346379  1
  H  H355  1  0.54232746  0.20769401  0.46001826  1
  C  C356  1  0.53821456  0.19243468  0.41227455  1
  H  H357  1  0.66369375  0.28096562  0.59145181  1
  C  C358  1  0.55606806  0.29640437  0.56217126  1
  H  H359  1  0.59573865  0.39500260  0.61415927  1
  O  O360  1  0.85300734  0.25909989  0.66490367  1
  C  C361  1  0.95856728  0.48800934  0.60797321  1
  H  H362  1  0.50209734  0.29936383  0.66499243  1
  Zn  Zn363  1  0.85677802  0.33998357  0.61781533  1
  C  C364  1  0.62777980  0.45058895  0.53611201  1
  C  C365  1  0.57554217  0.35249758  0.52710491  1
  Zn  Zn366  1  0.79315346  0.22524060  0.73555608  1
  C  C367  1  0.94080496  0.06754861  0.68703868  1
  O  O368  1  0.62146986  0.14512045  0.70101683  1
  C  C369  1  0.60828520  0.26408464  0.59522402  1
  C  C370  1  0.59668238  0.40194544  0.56486884  1
  O  O371  1  0.77099442  0.26362836  0.54557334  1
  C  C372  1  0.58797365  0.21429347  0.62811824  1
  H  H373  1  0.82081896  0.24022447  0.63531129  1
  O  O374  1  0.71035218  0.20032627  0.66393758  1
  C  C375  1  0.94389245  0.45090551  0.66294482  1
  O  O376  1  0.98614586  0.45421652  0.70607458  1
  O  O377  1  0.89031141  0.41533429  0.66265271  1
  H  H378  1  0.87402474  0.44868868  0.54926418  1
  C  C379  1  0.98731343  0.03460380  0.73507083  1
  O  O380  1  0.96459950  0.33692158  0.57074339  1
  C  C381  1  0.51482759  0.19428269  0.62999510  1
  C  C382  1  0.64495363  0.18259677  0.66613989  1
  C  C383  1  0.91691992  0.48118996  0.55444661  1
  O  O384  1  0.98266125  0.24229814  0.57553920  1
  O  O385  1  0.88136518  0.05267808  0.67014920  1
  O  O386  1  0.97044813  0.11357072  0.66344780  1
  Zn  Zn387  1  0.95958147  0.21097524  0.67027963  1
  O  O388  1  0.81714708  0.34814087  0.52576875  1
  H  H389  1  0.65511871  0.48691937  0.56199288  1
  C  C390  1  0.56578031  0.48286705  0.69119184  1
  C  C391  1  0.99846007  0.29265322  0.55794034  1
  C  C392  1  0.52292929  0.43522787  0.71826632  1
  H  H393  1  0.50158528  0.15210111  0.65379370  1
  H  H394  1  0.55187964  0.49223873  0.64199786  1
  C  C395  1  0.77758026  0.30435650  0.50951226  1
  H  H396  1  0.60173863  0.43539273  0.86217788  1
  O  O397  1  0.71891509  0.36804864  0.84338731  1
  C  C398  1  0.94613434  0.38155700  0.88186614  1
  O  O399  1  0.85009272  0.17674317  0.79576396  1
  H  H400  1  0.88066588  0.07404256  0.84141403  1
  C  C401  1  0.77459025  0.27097098  0.86037466  1
  C  C402  1  0.97936268  0.05392323  0.89664696  1
  H  H403  1  0.59524059  0.33452749  0.79549903  1
  C  C404  1  0.96080408  0.14646949  0.84084948  1
  C  C405  1  0.55854083  0.29447206  0.79653323  1
  C  C406  1  0.91650218  0.18900199  0.80199663  1
  H  H407  1  0.74768913  0.22938655  0.84461347  1
  C  C408  1  0.57809294  0.24740278  0.84310688  1
  C  C409  1  0.53289845  0.42466300  0.78103070  1
  Zn  Zn410  1  0.79986390  0.44562839  0.85516066  1
  C  C411  1  0.74862549  0.32458160  0.81941679  1
  O  O412  1  0.87644548  0.38306603  0.88802624  1
  C  C413  1  0.94567940  0.29502594  0.95116169  1
  H  H414  1  0.76455416  0.27759529  0.91017638  1
  O  O415  1  0.75431421  0.32089375  0.76409110  1
  C  C416  1  0.93445256  0.09034662  0.85929025  1
  H  H417  1  0.96090430  0.00745953  0.90774615  1
  O  O418  1  0.62485176  0.22501985  0.87331951  1
  C  C419  1  0.59012060  0.45131336  0.81336328  1
  H  H420  1  0.83586336  0.26152317  0.86299383  1
  C  C421  1  0.97977846  0.25100811  0.98614745  1
  H  H422  1  0.88704723  0.29628835  0.94984890  1
  H  H423  1  0.96390993  0.13399701  0.97133714  1
  Zn  Zn424  1  0.52352725  0.20840235  0.77019273  1
  O  O425  1  0.94688504  0.23010667  0.77234188  1
  O  O426  1  0.98314816  0.41198346  0.84823452  1
  C  C427  1  0.99012617  0.33526032  0.91888509  1
  C  C428  1  0.62983079  0.49790119  0.78587166  1
  H  H429  1  0.99791672  0.94992228  0.24792625  1
  C  C430  1  0.96224054  0.90816160  0.10195011  1
  C  C431  1  0.92056997  0.80853444  0.06018973  1
  H  H432  1  0.94412814  0.63719292  0.11578237  1
  C  C433  1  0.61911554  0.89489245  0.11796664  1
  C  C434  1  0.85983230  0.79189727  0.10362712  1
  O  O435  1  0.86284156  0.95331388  0.16444136  1
  Zn  Zn436  1  0.74334964  0.97282876  0.16004959  1
  H  H437  1  0.75069678  0.54758064  0.14691408  1
  C  C438  1  0.83069933  0.55518139  0.06156379  1
  O  O439  1  0.85589773  0.60105934  0.07424083  1
  O  O440  1  0.83758517  0.79291225  0.15344561  1
  O  O441  1  0.61104131  0.84663354  0.13838916  1
  C  C442  1  0.54545865  0.93091462  0.11919620  1
  C  C443  1  0.95713804  0.71562224  0.17704080  1
  O  O444  1  0.68508640  0.91528260  0.10279153  1
  H  H445  1  0.84070751  0.88972937  0.11916970  1
  Zn  Zn446  1  0.84166346  0.72640237  0.03140059  1
  C  C447  1  0.54196048  0.98903952  0.10149881  1
  C  C448  1  0.89131990  0.91998315  0.12706784  1
  H  H449  1  0.90461048  0.70977836  0.20224527  1
  C  C450  1  0.97361806  0.85632649  0.06951653  1
  C  C451  1  0.77648570  0.53542468  0.19027338  1
  H  H452  1  0.72036444  0.81558555  0.20695450  1
  C  C453  1  0.76258505  0.58083359  0.24262837  1
  H  H454  1  0.83427798  0.52728671  0.18244337  1
  O  O455  1  0.71410093  0.61749910  0.24034069  1
  C  C456  1  0.97702906  0.67650978  0.12847735  1
  O  O457  1  0.80799872  0.50802776  0.05615939  1
  H  H458  1  0.96417241  0.62249502  0.01339941  1
  C  C459  1  0.53492663  0.60980907  0.39673618  1
  C  C460  1  0.68787651  0.83478190  0.48723749  1
  C  C461  1  0.67330491  0.50496219  0.44445200  1
  Zn  Zn462  1  0.65275215  0.63185660  0.47869388  1
  Zn  Zn463  1  0.79294452  0.71806664  0.39491987  1
  O  O464  1  0.56743420  0.60791739  0.34554956  1
  O  O465  1  0.55097927  0.64804025  0.43745220  1
  Zn  Zn466  1  0.94109253  0.86152969  0.48136608  1
  C  C467  1  0.72413748  0.78732859  0.30207948  1
  O  O468  1  0.90440835  0.54912065  0.40333893  1
  C  C469  1  0.59183608  0.97265105  0.27876631  1
  O  O470  1  0.91506977  0.70579528  0.39130639  1
  O  O471  1  0.70968073  0.66281202  0.41288681  1
  O  O472  1  0.78709246  0.78925811  0.32315864  1
  O  O473  1  0.95926652  0.94731025  0.38910945  1
  Zn  Zn474  1  0.66348263  0.65148032  0.33161993  1
  H  H475  1  0.73786068  0.87560271  0.26388843  1
  C  C476  1  0.59008025  0.88238670  0.34154160  1
  C  C477  1  0.62969204  0.92731888  0.31253430  1
  C  C478  1  0.97878929  0.78440154  0.43407584  1
  O  O479  1  0.67748395  0.75216031  0.32381076  1
  O  O480  1  0.94797078  0.87545855  0.32360721  1
  H  H481  1  0.62051049  0.84745857  0.36992904  1
  C  C482  1  0.96604283  0.74080487  0.38555210  1
  O  O483  1  0.79947281  0.57246831  0.28964853  1
  H  H484  1  0.65904992  0.92343457  0.46662512  1
  H  H485  1  0.68905175  0.93437579  0.31864663  1
  C  C486  1  0.64193577  0.88337244  0.48667491  1
  Zn  Zn487  1  0.98878560  0.81813354  0.25966838  1
  C  C488  1  0.97154573  0.92562710  0.33960734  1
  H  H489  1  0.55749206  0.96409451  0.42764389  1
  O  O490  1  0.80214994  0.77999791  0.47339131  1
  O  O491  1  0.67851680  0.50621396  0.38738301  1
  O  O492  1  0.80283270  0.87645287  0.46413562  1
  C  C493  1  0.76832507  0.83008178  0.47046251  1
  C  C494  1  0.51628308  0.96872909  0.46318236  1
  O  O495  1  0.69090687  0.54554541  0.47890015  1
  C  C496  1  0.51312873  0.97400774  0.27644130  1
  C  C497  1  0.51057728  0.87607856  0.33436408  1
  C  C498  1  0.89946749  0.51204608  0.44363018  1
  H  H499  1  0.50083389  0.50532481  0.34024076  1
  C  C500  1  0.95606631  0.76947808  0.49980867  1
  C  C501  1  0.70448768  0.83320598  0.25269911  1
  H  H502  1  0.64413917  0.84536676  0.25182339  1
  C  C503  1  0.95528636  0.67539188  0.68737735  1
  C  C504  1  0.58948498  0.77590265  0.53079802  1
  H  H505  1  0.92329325  0.72806502  0.50737806  1
  C  C506  1  0.94277704  0.62225387  0.72725882  1
  C  C507  1  0.97575706  0.80670602  0.55389582  1
  C  C508  1  0.93394280  0.51920389  0.50574779  1
  C  C509  1  0.65985461  0.77934469  0.50779537  1
  C  C510  1  0.54530901  0.82559850  0.53608275  1
  H  H511  1  0.83653291  0.70168536  0.68794146  1
  H  H512  1  0.65688982  0.54645725  0.70144814  1
  H  H513  1  0.69382457  0.73701126  0.50184670  1
  C  C514  1  0.62140922  0.51198925  0.72220810  1
  C  C515  1  0.56441098  0.71680077  0.55853179  1
  C  C516  1  0.90131590  0.76008460  0.63653236  1
  O  O517  1  0.87924817  0.61653734  0.74719263  1
  C  C518  1  0.89410746  0.71127884  0.67421048  1
  O  O519  1  0.60546409  0.67222364  0.55718943  1
  H  H520  1  0.85525579  0.78740456  0.62594941  1
  C  C521  1  0.97351236  0.77570036  0.61243581  1
  O  O522  1  0.99499265  0.58852875  0.74048193  1
  C  C523  1  0.51698827  0.92911199  0.51580583  1
  C  C524  1  0.57333514  0.88060935  0.51847756  1
  O  O525  1  0.50436211  0.71593049  0.58642700  1
  H  H526  1  0.91619604  0.95694493  0.74891664  1
  C  C527  1  0.98553558  0.56377144  0.50694085  1
  C  C528  1  0.99857697  0.89709276  0.82942008  1
  Zn  Zn529  1  0.84289070  0.58625283  0.84100760  1
  O  O530  1  0.93897558  0.87398461  0.81818358  1
  O  O531  1  0.72043296  0.57304236  0.80151529  1
  C  C532  1  0.90063616  0.74023935  0.95501650  1
  O  O533  1  0.84607582  0.65832711  0.89805736  1
  Zn  Zn534  1  0.98879269  0.79976147  0.91586520  1
  O  O535  1  0.90788207  0.72544297  0.84679612  1
  C  C536  1  0.88403409  0.70653890  0.89638384  1
  O  O537  1  0.93725966  0.55876339  0.91361172  1
  C  C538  1  0.69065694  0.52911677  0.82208331  1
  O  O539  1  0.86123648  0.50537364  0.81745878  1
  C  C540  1  0.92602432  0.78407549  0.99396848  1
  C  C541  1  0.96925411  0.98055077  0.75846013  1
  Zn  Zn542  1  0.96915973  0.50073188  0.79196966  1
  O  O543  1  0.70933354  0.50996373  0.87284674  1
