# generated using pymatgen
data_Zn2H24(C11O4)3
_symmetry_space_group_name_H-M   'P 1'
_cell_length_a   27.06222554
_cell_length_b   10.64421955
_cell_length_c   26.17215100
_cell_angle_alpha   90.00000000
_cell_angle_beta   90.00000000
_cell_angle_gamma   90.00000000
_symmetry_Int_Tables_number   1
_chemical_formula_structural   Zn2H24(C11O4)3
_chemical_formula_sum   'Zn16 H192 C264 O96'
_cell_volume   7539.05220094
_cell_formula_units_Z   8
loop_
 _symmetry_equiv_pos_site_id
 _symmetry_equiv_pos_as_xyz
  1  'x, y, z'
loop_
 _atom_site_type_symbol
 _atom_site_label
 _atom_site_symmetry_multiplicity
 _atom_site_fract_x
 _atom_site_fract_y
 _atom_site_fract_z
 _atom_site_occupancy
  C  C0  1  0.05610573  0.35426579  0.20255773  1
  H  H1  1  0.04471185  0.27843814  0.17517304  1
  C  C2  1  0.02708503  0.46247819  0.19648049  1
  O  O3  1  0.15171979  0.08700913  0.23151877  1
  H  H4  1  0.11929263  0.26893503  0.23178077  1
  C  C5  1  0.09574041  0.35165273  0.23560887  1
  C  C6  1  0.10659636  0.03878917  0.22337060  1
  H  H7  1  0.10934609  0.09516398  0.14182623  1
  C  C8  1  0.08798573  0.03912649  0.17346912  1
  H  H9  1  0.48156292  0.06190735  0.06680445  1
  O  O10  1  0.48811572  0.21947461  0.16163547  1
  C  C11  1  0.49925906  0.28349226  0.12597464  1
  H  H12  1  0.42700800  0.14043440  0.08403065  1
  C  C13  1  0.45928058  0.14969448  0.05881567  1
  C  C14  1  0.48831693  0.26262757  0.07326950  1
  O  O15  1  0.44948139  0.13984836  0.00360015  1
  H  H16  1  0.15673454  0.24783859  0.40807211  1
  C  C17  1  0.16862831  0.17418329  0.38111225  1
  C  C18  1  0.09635023  0.20028890  0.33025969  1
  H  H19  1  0.08465622  0.28283988  0.34989895  1
  H  H20  1  0.07829852  0.20217522  0.29245449  1
  C  C21  1  0.15117053  0.20066056  0.32664040  1
  O  O22  1  0.13928211  0.44495415  0.30742359  1
  C  C23  1  0.17290660  0.32143352  0.30732269  1
  H  H24  1  0.19994196  0.35280121  0.33400594  1
  O  O25  1  0.22673707  0.17577291  0.38312161  1
  O  O26  1  0.06956421  0.10226745  0.36372651  1
  H  H27  1  0.15263032  0.08146881  0.39367607  1
  C  C28  1  0.16465880  0.09589053  0.29281734  1
  C  C29  1  0.02093782  0.08219071  0.35427990  1
  H  H30  1  0.20504142  0.06905638  0.29244138  1
  O  O31  1  0.02511200  0.42615075  0.47357771  1
  H  H32  1  0.00363092  0.47782466  0.30343087  1
  H  H33  1  0.01134298  0.07656583  0.48104665  1
  H  H34  1  0.22258334  0.26255640  0.47702032  1
  H  H35  1  0.05937515  0.28690056  0.48360154  1
  H  H36  1  0.01234048  0.20687017  0.29075982  1
  C  C37  1  0.01622684  0.44855873  0.38342104  1
  C  C38  1  0.07758467  0.19547960  0.48950394  1
  C  C39  1  0.05119423  0.08471604  0.48760568  1
  C  C40  1  0.00195509  0.41042356  0.43298652  1
  H  H41  1  0.05196505  0.49535110  0.37728786  1
  H  H42  1  0.14457716  0.00628286  0.30168794  1
  H  H43  1  0.18966334  0.31946490  0.26685581  1
  C  C44  1  0.10397880  0.44587846  0.27380039  1
  C  C45  1  0.24930633  0.08720322  0.40876022  1
  H  H46  1  0.44562490  0.43509242  0.44798184  1
  C  C47  1  0.30161379  0.07746042  0.40606370  1
  O  O48  1  0.49734102  0.14666605  0.37600105  1
  C  C49  1  0.26545085  0.46529847  0.47449271  1
  H  H50  1  0.28669648  0.38835332  0.45547484  1
  H  H51  1  0.32031520  0.15087008  0.38211871  1
  O  O52  1  0.15351387  0.17085893  0.65163298  1
  H  H53  1  0.21174643  0.24264513  0.54414309  1
  H  H54  1  0.18270608  0.33745213  0.65593769  1
  H  H55  1  0.19104577  0.08173389  0.52204079  1
  C  C56  1  0.15208245  0.08540841  0.51164280  1
  C  C57  1  0.13586925  0.06803324  0.64321496  1
  C  C58  1  0.20849075  0.31291213  0.51201344  1
  O  O59  1  0.09406111  0.03725281  0.66379179  1
  H  H60  1  0.09280351  0.37874889  0.73425790  1
  H  H61  1  0.20822319  0.49762409  0.58639235  1
  O  O62  1  0.19140763  0.42604440  0.64913529  1
  H  H63  1  0.00118529  0.14121066  0.69663237  1
  H  H64  1  0.23335155  0.06625944  0.60656161  1
  H  H65  1  0.16250420  0.47259533  0.65795978  1
  C  C66  1  0.24261171  0.42029621  0.52260127  1
  C  C67  1  0.12890553  0.19880833  0.50095342  1
  O  O68  1  0.15293179  0.31095833  0.50377589  1
  O  O69  1  0.49914203  0.03936752  0.74768633  1
  C  C70  1  0.44200865  0.02839923  0.54601538  1
  H  H71  1  0.33483469  0.00893762  0.53133000  1
  H  H72  1  0.33787745  0.15366203  0.70654357  1
  O  O73  1  0.29925898  0.23412413  0.54277526  1
  H  H74  1  0.26839352  0.39183481  0.59644945  1
  C  C75  1  0.47118682  0.07473522  0.71235208  1
  H  H76  1  0.41339228  0.45997762  0.53757644  1
  C  C77  1  0.28076279  0.37023947  0.55687085  1
  H  H78  1  0.31068270  0.28875991  0.64272450  1
  C  C79  1  0.33416968  0.03374303  0.57084999  1
  H  H80  1  0.44670615  0.33956388  0.74038851  1
  Zn  Zn81  1  0.44832736  0.15490422  0.60650676  1
  C  C82  1  0.43699720  0.41533243  0.65964980  1
  C  C83  1  0.32007808  0.19330645  0.62997134  1
  C  C84  1  0.31771249  0.15925804  0.57742849  1
  C  C85  1  0.44510696  0.31573729  0.69893078  1
  O  O86  1  0.43649397  0.42137628  0.61361221  1
  H  H87  1  0.31773340  0.41419824  0.55110194  1
  C  C88  1  0.33683346  0.11815364  0.66862874  1
  C  C89  1  0.45463909  0.19164056  0.68594880  1
  C  C90  1  0.35673432  0.33248521  0.74374525  1
  O  O91  1  0.41877237  0.06021115  0.50984774  1
  C  C92  1  0.03528591  0.34671661  0.79352063  1
  H  H93  1  0.04952935  0.24772240  0.79650820  1
  O  O94  1  0.19568214  0.03105537  0.77690605  1
  O  O95  1  0.00278335  0.26820769  0.98702991  1
  O  O96  1  0.04787558  0.01757321  0.78215461  1
  C  C97  1  0.00310287  0.01129542  0.79768493  1
  O  O98  1  0.09229036  0.45982207  0.89512190  1
  C  C99  1  0.06057728  0.42089879  0.75607139  1
  H  H100  1  0.44498565  0.13362302  0.90405792  1
  H  H101  1  0.35771095  0.12397159  0.83951916  1
  O  O102  1  0.39023555  0.07375426  0.84444936  1
  O  O103  1  0.40206425  0.38252669  0.91694600  1
  C  C104  1  0.48740762  0.12687622  0.97117876  1
  C  C105  1  0.48317614  0.13402392  0.91727153  1
  C  C106  1  0.42541511  0.47726040  0.91698371  1
  O  O107  1  0.34967005  0.33640812  0.78359819  1
  H  H108  1  0.49810862  0.32304992  0.99710695  1
  H  H109  1  0.39497066  0.03281720  0.75654628  1
  C  C110  1  0.01298224  0.92735344  0.19589483  1
  C  C111  1  0.03575218  0.56335409  0.23054562  1
  H  H112  1  0.01612860  0.65290221  0.22704082  1
  C  C113  1  0.04330703  0.98968937  0.15986334  1
  H  H114  1  0.02618159  0.99229083  0.12024759  1
  C  C115  1  0.02539318  0.93887174  0.24823731  1
  C  C116  1  0.31141753  0.63030308  0.23342380  1
  O  O117  1  0.28429989  0.65740523  0.19986838  1
  O  O118  1  0.36428526  0.63259922  0.22991052  1
  O  O119  1  0.47169753  0.77732318  0.02514068  1
  H  H120  1  0.36792949  0.64323057  0.19177752  1
  O  O121  1  0.11477176  0.79073615  0.34486353  1
  C  C122  1  0.13719264  0.82669759  0.37999548  1
  C  C123  1  0.22329620  0.57842548  0.34116320  1
  H  H124  1  0.07735421  0.62423364  0.29516340  1
  H  H125  1  0.18283319  0.59097237  0.34759993  1
  H  H126  1  0.17658658  0.84981077  0.37352179  1
  H  H127  1  0.12180913  0.84428417  0.41901751  1
  H  H128  1  0.01347587  0.94159269  0.41132449  1
  H  H129  1  0.22831944  0.83452214  0.48977950  1
  C  C130  1  0.07631975  0.96707073  0.49516993  1
  C  C131  1  0.05222713  0.83942331  0.49826838  1
  O  O132  1  0.00686608  0.83309643  0.49103965  1
  H  H133  1  0.00100317  0.90853922  0.27818371  1
  H  H134  1  0.08412207  0.97422560  0.29856072  1
  C  C135  1  0.07165073  0.55000398  0.26605145  1
  H  H136  1  0.21442448  0.63974591  0.26124823  1
  C  C137  1  0.23938588  0.60980066  0.29196534  1
  C  C138  1  0.22659099  0.99502024  0.44035340  1
  H  H139  1  0.18532100  0.99185504  0.44145851  1
  O  O140  1  0.22938831  0.50081282  0.42982042  1
  C  C141  1  0.07202114  0.98417802  0.25775117  1
  C  C142  1  0.25031087  0.90442691  0.46786565  1
  C  C143  1  0.32808914  0.99368699  0.43543399  1
  O  O144  1  0.45584697  0.50466501  0.36379194  1
  C  C145  1  0.25018753  0.53902384  0.38546615  1
  C  C146  1  0.30304947  0.89986318  0.46425132  1
  H  H147  1  0.38626728  0.79485261  0.40833256  1
  C  C148  1  0.44332701  0.61946253  0.37573265  1
  H  H149  1  0.36812735  0.99671794  0.43622705  1
  C  C150  1  0.36814495  0.73615153  0.48948688  1
  C  C151  1  0.29036391  0.60289553  0.28407888  1
  O  O152  1  0.44359989  0.70454971  0.34618227  1
  C  C153  1  0.41944799  0.62147121  0.42811539  1
  H  H154  1  0.44317357  0.81779539  0.49871388  1
  H  H155  1  0.32703844  0.53258882  0.40795503  1
  C  C156  1  0.39345149  0.72875177  0.44034011  1
  C  C157  1  0.42532427  0.52060220  0.46272338  1
  H  H158  1  0.28940255  0.54939375  0.48158741  1
  H  H159  1  0.36119116  0.58204998  0.31988026  1
  C  C160  1  0.30243533  0.54736079  0.37573771  1
  C  C161  1  0.32115098  0.58331706  0.32733589  1
  C  C162  1  0.21403608  0.98098014  0.59853557  1
  C  C163  1  0.16437452  0.96886562  0.61532494  1
  C  C164  1  0.17040437  0.77174415  0.58685318  1
  C  C165  1  0.13805086  0.85491681  0.60663944  1
  H  H166  1  0.09890340  0.83349763  0.61592854  1
  C  C167  1  0.21678475  0.75821752  0.56994337  1
  O  O168  1  0.04383930  0.73609045  0.70145853  1
  H  H169  1  0.14610235  0.88408606  0.51960090  1
  C  C170  1  0.12594234  0.97278741  0.50830192  1
  O  O171  1  0.07379504  0.74142352  0.51165420  1
  C  C172  1  0.21480517  0.73128766  0.71555814  1
  C  C173  1  0.06509122  0.62603709  0.70833758  1
  O  O174  1  0.09828391  0.59606251  0.68001604  1
  C  C175  1  0.21623923  0.53793977  0.54779197  1
  H  H176  1  0.17629739  0.70155721  0.71548466  1
  C  C177  1  0.22714037  0.84630684  0.73585268  1
  Zn  Zn178  1  0.07993973  0.90908391  0.72135901  1
  O  O179  1  0.24419281  0.64546962  0.55274101  1
  H  H180  1  0.18073587  0.56356388  0.52678202  1
  H  H181  1  0.00740344  0.62784918  0.62802424  1
  Zn  Zn182  1  0.00415028  0.61430637  0.51348750  1
  C  C183  1  0.23870585  0.87982428  0.57958139  1
  H  H184  1  0.23685574  0.57160147  0.67325114  1
  H  H185  1  0.49629510  0.99681109  0.63957061  1
  H  H186  1  0.43127623  0.51654145  0.67205378  1
  H  H187  1  0.31391777  0.78545935  0.53562594  1
  C  C188  1  0.37783047  0.64096193  0.52993523  1
  C  C189  1  0.46073453  0.81024003  0.53542455  1
  C  C190  1  0.25042856  0.65877782  0.69175958  1
  H  H191  1  0.36974392  0.86766713  0.59391790  1
  C  C192  1  0.48910096  0.91661117  0.61688726  1
  C  C193  1  0.27570707  0.89210769  0.73080392  1
  O  O194  1  0.44911147  0.68100491  0.73910716  1
  C  C195  1  0.36265443  0.88956384  0.70205889  1
  O  O196  1  0.33423535  0.62514158  0.66542373  1
  C  C197  1  0.30019130  0.69939338  0.68574450  1
  H  H198  1  0.48366771  0.61503074  0.53334477  1
  C  C199  1  0.35351612  0.95719590  0.60782717  1
  C  C200  1  0.48231351  0.70406283  0.55648552  1
  O  O201  1  0.36054376  0.65015939  0.57284517  1
  H  H202  1  0.45741703  0.98032617  0.69614258  1
  C  C203  1  0.40691931  0.53756133  0.51101374  1
  H  H204  1  0.27813655  0.89237276  0.57144925  1
  H  H205  1  0.38889830  0.81891562  0.68787862  1
  C  C206  1  0.46588177  0.91873226  0.56778498  1
  H  H207  1  0.33594937  0.64732972  0.62357201  1
  C  C208  1  0.31013972  0.82185335  0.70534888  1
  H  H209  1  0.28512611  0.98629029  0.74735825  1
  C  C210  1  0.35281336  0.99332393  0.66088303  1
  C  C211  1  0.48580699  0.74293321  0.73857742  1
  C  C212  1  0.32949635  0.81855189  0.50017045  1
  H  H213  1  0.06670771  0.56158646  0.83596597  1
  C  C214  1  0.18677843  0.92557884  0.76276887  1
  C  C215  1  0.08368023  0.55760108  0.87590859  1
  O  O216  1  0.14605059  0.86985712  0.76924387  1
  C  C217  1  0.00592537  0.59327751  0.78112055  1
  H  H218  1  0.08925884  0.65333750  0.89471348  1
  C  C219  1  0.04557260  0.54646019  0.75278037  1
  C  C220  1  0.47115063  0.70096631  0.93824194  1
  C  C221  1  0.44502748  0.58045641  0.94771629  1
  C  C222  1  0.36628199  0.87063957  0.79669773  1
  C  C223  1  0.48228572  0.79178245  0.98091165  1
  Zn  Zn224  1  0.45704991  0.58218709  0.85870578  1
  H  H225  1  0.34349936  0.70561529  0.83818261  1
  H  H226  1  0.34399894  0.68301493  0.76769103  1
  H  H227  1  0.49657034  0.77030113  0.77996839  1
  C  C228  1  0.49214475  0.75442598  0.89005393  1
  H  H229  1  0.33574142  0.95755811  0.86822891  1
  C  C230  1  0.35126703  0.74385027  0.80111265  1
  C  C231  1  0.37326731  0.95722797  0.84978730  1
  H  H232  1  0.40010433  0.89603459  0.87389004  1
  H  H233  1  0.44181386  0.56543589  0.99090027  1
  C  C234  1  0.37835284  0.94122190  0.75357838  1
  C  C235  1  0.61545102  0.23420145  0.07408842  1
  H  H236  1  0.59140707  0.30851160  0.05324157  1
  C  C237  1  0.67155127  0.23433081  0.06488136  1
  O  O238  1  0.67676439  0.41563476  0.21727047  1
  O  O239  1  0.59047052  0.18382584  0.10391696  1
  C  C240  1  0.69454757  0.34534463  0.09093177  1
  H  H241  1  0.67855609  0.13667204  0.13903648  1
  C  C242  1  0.68338155  0.23466702  0.00989181  1
  C  C243  1  0.68784802  0.12453003  0.09733879  1
  H  H244  1  0.52528968  0.29401681  0.22021605  1
  H  H245  1  0.67303656  0.02654082  0.08548019  1
  H  H246  1  0.54666861  0.09454042  0.02755331  1
  H  H247  1  0.68211067  0.35047422  0.13183512  1
  C  C248  1  0.50404527  0.34222148  0.03807219  1
  C  C249  1  0.71046699  0.34512579  0.23123616  1
  H  H250  1  0.70789569  0.31661498  0.00185118  1
  O  O251  1  0.53006408  0.44470581  0.04191823  1
  H  H252  1  0.51850176  0.36760520  0.13968908  1
  O  O253  1  0.68247411  0.46975864  0.06694094  1
  H  H254  1  0.61775617  0.25063714  0.24566174  1
  O  O255  1  0.74083555  0.08595432  0.09962135  1
  H  H256  1  0.73636411  0.34276113  0.09139760  1
  C  C257  1  0.69690673  0.21605340  0.24715156  1
  C  C258  1  0.87992623  0.30577601  0.01538465  1
  H  H259  1  0.77078336  0.17338509  0.01533867  1
  C  C260  1  0.82810076  0.33721403  0.11282813  1
  C  C261  1  0.86889107  0.07462310  0.02670705  1
  C  C262  1  0.83075175  0.21935792  0.09121060  1
  H  H263  1  0.94129417  0.13408099  0.05504529  1
  H  H264  1  0.81334234  0.13695287  0.11174661  1
  C  C265  1  0.87717074  0.42427405  0.03662885  1
  C  C266  1  0.85673883  0.20275727  0.04441505  1
  O  O267  1  0.75374101  0.38627026  0.23782618  1
  C  C268  1  0.98609303  0.46030081  0.15756684  1
  C  C269  1  0.92097141  0.05323916  0.03797752  1
  C  C270  1  0.85150760  0.43466152  0.08493284  1
  O  O271  1  0.97968876  0.38288378  0.12508380  1
  H  H272  1  0.81030411  0.36681025  0.14914827  1
  C  C273  1  0.57554603  0.05576292  0.40296623  1
  C  C274  1  0.62638147  0.07248332  0.40866819  1
  H  H275  1  0.64394967  0.16616800  0.40346459  1
  C  C276  1  0.67643369  0.33180724  0.46553711  1
  H  H277  1  0.64430932  0.38834040  0.45155335  1
  O  O278  1  0.68492099  0.43070702  0.36418545  1
  O  O279  1  0.56264064  0.26726669  0.37627724  1
  C  C280  1  0.71957153  0.31588750  0.43643106  1
  O  O281  1  0.51609519  0.38802894  0.48012357  1
  Zn  Zn282  1  0.52045950  0.42131454  0.39587355  1
  C  C283  1  0.71912709  0.36511575  0.38138943  1
  H  H284  1  0.50567640  0.14101200  0.49013488  1
  C  C285  1  0.54168890  0.16257321  0.38293787  1
  C  C286  1  0.63565867  0.06579971  0.27083708  1
  H  H287  1  0.59669889  0.04198263  0.27541944  1
  C  C288  1  0.72153922  0.02476745  0.28126633  1
  C  C289  1  0.73597107  0.13619040  0.25932667  1
  C  C290  1  0.64719627  0.18392334  0.25497522  1
  Zn  Zn291  1  0.61429949  0.46296703  0.29433011  1
  H  H292  1  0.51690150  0.29771282  0.27744065  1
  O  O293  1  0.54516351  0.29545678  0.25328861  1
  O  O294  1  0.85973789  0.38158805  0.30378426  1
  C  C295  1  0.95257468  0.34576261  0.43059286  1
  O  O296  1  0.75605449  0.34126884  0.35341539  1
  C  C297  1  0.76301889  0.24939437  0.45184475  1
  C  C298  1  0.75875631  0.19263286  0.49913592  1
  C  C299  1  0.90677559  0.18791769  0.48215162  1
  Zn  Zn300  1  0.79016677  0.47332885  0.30322565  1
  C  C301  1  0.98685508  0.45090130  0.34043143  1
  H  H302  1  0.88316926  0.31666208  0.38923083  1
  H  H303  1  0.92609070  0.16443758  0.26957930  1
  C  C304  1  0.94636326  0.10494462  0.29936823  1
  H  H305  1  0.88764850  0.14146131  0.40199133  1
  C  C306  1  0.92064283  0.36150513  0.38855610  1
  C  C307  1  0.88138269  0.12411270  0.44136544  1
  C  C308  1  0.94401730  0.28363592  0.47798103  1
  H  H309  1  0.77546728  0.16287032  0.25552474  1
  C  C310  1  0.90358830  0.41936055  0.29740037  1
  H  H311  1  0.79798975  0.24624548  0.42970713  1
  C  C312  1  0.99305523  0.13684589  0.31353621  1
  C  C313  1  0.92080696  0.01099534  0.32911845  1
  C  C314  1  0.93777925  0.41003882  0.34256196  1
  O  O315  1  0.84734306  0.02873745  0.27647442  1
  H  H316  1  0.82737201  0.45849949  0.46617398  1
  C  C317  1  0.85132577  0.02021866  0.45095205  1
  O  O318  1  0.92129729  0.45850760  0.25764643  1
  C  C319  1  0.55400981  0.11578681  0.55430967  1
  O  O320  1  0.71205315  0.13524932  0.57489151  1
  C  C321  1  0.59336766  0.10693233  0.64082788  1
  C  C322  1  0.57883897  0.17976218  0.59318968  1
  H  H323  1  0.69506839  0.20204977  0.65757846  1
  O  O324  1  0.61193523  0.15024936  0.68186068  1
  C  C325  1  0.73071484  0.17337820  0.67487159  1
  C  C326  1  0.71634951  0.20104109  0.52987434  1
  C  C327  1  0.58850876  0.30690420  0.59451733  1
  C  C328  1  0.57147584  0.37519254  0.55103294  1
  H  H329  1  0.60663988  0.34903597  0.62698021  1
  C  C330  1  0.70741419  0.41671935  0.71323085  1
  H  H331  1  0.64290500  0.27441297  0.53889426  1
  H  H332  1  0.55225739  0.01269277  0.55589790  1
  H  H333  1  0.72528615  0.16117492  0.71798386  1
  H  H334  1  0.67527486  0.42390553  0.59433650  1
  H  H335  1  0.68036695  0.34107482  0.70830996  1
  C  C336  1  0.53120937  0.18972793  0.51696108  1
  C  C337  1  0.53742732  0.32429540  0.51264311  1
  C  C338  1  0.74724992  0.05328473  0.65240909  1
  O  O339  1  0.57337761  0.47732717  0.71805248  1
  C  C340  1  0.67673078  0.27547152  0.51279820  1
  C  C341  1  0.58326811  0.49788162  0.53751657  1
  Zn  Zn342  1  0.56998332  0.15996931  0.74999737  1
  H  H343  1  0.82021655  0.49653791  0.67259218  1
  C  C344  1  0.75539513  0.39812343  0.69063188  1
  H  H345  1  0.78299978  0.00882735  0.72368827  1
  O  O346  1  0.92295244  0.17800449  0.57035797  1
  C  C347  1  0.87067312  0.40318567  0.60268115  1
  C  C348  1  0.89849205  0.13614369  0.53432009  1
  H  H349  1  0.80139498  0.32569389  0.58235287  1
  H  H350  1  0.78815492  0.13263850  0.51030435  1
  C  C351  1  0.75577823  0.07034141  0.59509137  1
  H  H352  1  0.78958833  0.12818551  0.58764845  1
  C  C353  1  0.87943799  0.05084755  0.69187398  1
  C  C354  1  0.96747040  0.09251883  0.70858433  1
  O  O355  1  0.83811558  0.06126602  0.66451059  1
  H  H356  1  0.90876231  0.45578922  0.52508750  1
  C  C357  1  0.82499162  0.41219770  0.58369814  1
  C  C358  1  0.92543965  0.09966771  0.67823169  1
  C  C359  1  0.86383153  0.03559199  0.53907514  1
  H  H360  1  0.88239660  0.31945360  0.62361680  1
  H  H361  1  0.96692180  0.31007204  0.51046397  1
  H  H362  1  0.92721030  0.14533282  0.64092469  1
  O  O363  1  0.76619781  0.29251131  0.66785237  1
  O  O364  1  0.97515999  0.42471126  0.63619881  1
  C  C365  1  0.57446848  0.10496411  0.95087306  1
  H  H366  1  0.61178789  0.09703250  0.96480638  1
  C  C367  1  0.61294551  0.12698216  0.86466937  1
  O  O368  1  0.65364004  0.13647634  0.88934075  1
  O  O369  1  0.61289014  0.14661521  0.81654737  1
  C  C370  1  0.57049377  0.11540856  0.89755033  1
  H  H371  1  0.54030205  0.36186372  0.85359235  1
  H  H372  1  0.56360145  0.33201345  0.94969511  1
  C  C373  1  0.53605399  0.10385584  0.98644145  1
  C  C374  1  0.52057791  0.12412395  0.88206101  1
  Zn  Zn375  1  0.71941160  0.15210641  0.84834488  1
  O  O376  1  0.53546656  0.33646738  0.76588537  1
  C  C377  1  0.56144458  0.43712169  0.95021159  1
  C  C378  1  0.56214377  0.44741359  0.85372892  1
  H  H379  1  0.51416015  0.12684590  0.84119552  1
  O  O380  1  0.72181314  0.46676618  0.92563947  1
  C  C381  1  0.55892604  0.43856370  0.76075382  1
  O  O382  1  0.70838316  0.11053606  0.99217998  1
  C  C383  1  0.54587919  0.49191967  0.99371714  1
  H  H384  1  0.64922838  0.25844319  0.98768172  1
  C  C385  1  0.96135344  0.03667106  0.75598386  1
  C  C386  1  0.76266934  0.48839168  0.93590996  1
  H  H387  1  0.98080818  0.22999174  0.84877036  1
  C  C388  1  0.75572666  0.08713678  0.99591151  1
  C  C389  1  0.77995402  0.10176300  0.81015533  1
  C  C390  1  0.96333042  0.28823207  0.97124171  1
  C  C391  1  0.99380942  0.38692111  0.82248908  1
  C  C392  1  0.85817556  0.40846798  0.78741516  1
  Zn  Zn393  1  0.78239700  0.43031954  0.82240203  1
  O  O394  1  0.96899721  0.31569656  0.85914270  1
  H  H395  1  0.84700522  0.21556683  0.75895814  1
  H  H396  1  0.89587232  0.17397148  0.95249500  1
  Zn  Zn397  1  0.93225714  0.46316048  0.94428892  1
  C  C398  1  0.78478446  0.23578130  0.81122642  1
  C  C399  1  0.82959147  0.28807247  0.78551365  1
  C  C400  1  0.90663155  0.26727580  0.96759081  1
  H  H401  1  0.89166394  0.40468406  0.76300918  1
  O  O402  1  0.60004373  0.91349360  0.04215224  1
  C  C403  1  0.62704481  0.84468622  0.02257353  1
  C  C404  1  0.67002898  0.75930559  0.03150557  1
  C  C405  1  0.72476358  0.95331072  0.17685956  1
  C  C406  1  0.68112723  0.71526976  0.08323735  1
  H  H407  1  0.66384955  0.75939827  0.11680141  1
  H  H408  1  0.59447832  0.84711628  0.12372009  1
  O  O409  1  0.54985444  0.66228479  0.23147185  1
  O  O410  1  0.61369998  0.84396904  0.15600431  1
  C  C411  1  0.69299933  0.57203713  0.09389324  1
  H  H412  1  0.59284094  0.79680511  0.17851057  1
  H  H413  1  0.69834860  0.54785508  0.13495078  1
  H  H414  1  0.68637444  0.99873808  0.17852251  1
  H  H415  1  0.64828946  0.66834406  0.23229980  1
  C  C416  1  0.73514946  0.85412985  0.20893580  1
  Zn  Zn417  1  0.74645631  0.67679233  0.04616182  1
  H  H418  1  0.70750076  0.81759743  0.23737787  1
  O  O419  1  0.96800235  0.67948786  0.00605479  1
  C  C420  1  0.75318921  0.99934874  0.13555985  1
  C  C421  1  0.97022027  0.84836494  0.18109382  1
  H  H422  1  0.85796717  0.82603897  0.17409874  1
  C  C423  1  0.94297618  0.94411534  0.02202337  1
  H  H424  1  0.89202323  0.51840614  0.01952091  1
  Zn  Zn425  1  0.95246125  0.66688187  0.08928177  1
  O  O426  1  0.94137656  0.81094369  0.21662498  1
  O  O427  1  0.84138156  0.58231554  0.15340408  1
  C  C428  1  0.85456949  0.56023738  0.10947570  1
  H  H429  1  0.98193888  0.92570048  0.02293655  1
  O  O430  1  0.87106585  0.64911645  0.08111266  1
  C  C431  1  0.81785849  0.85604245  0.17216396  1
  O  O432  1  0.96020100  0.57210642  0.15877182  1
  O  O433  1  0.96095744  0.82885176  0.13462810  1
  Zn  Zn434  1  0.90015269  0.62628665  0.21038731  1
  H  H435  1  0.82688707  0.96396519  0.10600339  1
  C  C436  1  0.79957054  0.94236378  0.13610906  1
  C  C437  1  0.78285036  0.80936053  0.20714797  1
  C  C438  1  0.79672205  0.70992854  0.24623322  1
  C  C439  1  0.83786358  0.97712874  0.00233113  1
  O  O440  1  0.66486449  0.86565559  0.30613311  1
  C  C441  1  0.61481434  0.81790631  0.30277571  1
  C  C442  1  0.60879843  0.67523746  0.30500576  1
  H  H443  1  0.59605211  0.87226483  0.33285766  1
  H  H444  1  0.73071477  0.61163799  0.39612740  1
  H  H445  1  0.72470331  0.82004016  0.40711136  1
  C  C446  1  0.71489149  0.78323372  0.44629381  1
  O  O447  1  0.65824035  0.75286016  0.45322726  1
  C  C448  1  0.57931126  0.84395115  0.43005984  1
  C  C449  1  0.63065732  0.85131132  0.43806765  1
  H  H450  1  0.63098999  0.65449803  0.38550864  1
  C  C451  1  0.60201885  0.61793194  0.35888537  1
  H  H452  1  0.56260582  0.75504099  0.43503271  1
  O  O453  1  0.56186506  0.59651054  0.37903851  1
  C  C454  1  0.55146028  0.94439762  0.41285647  1
  H  H455  1  0.68756489  0.63783604  0.28764668  1
  C  C456  1  0.65048076  0.62651750  0.27060413  1
  H  H457  1  0.52228481  0.68627569  0.29744505  1
  H  H458  1  0.59671139  0.84986919  0.26590343  1
  C  C459  1  0.55468796  0.65798318  0.27601206  1
  H  H460  1  0.71330925  0.86586674  0.47408858  1
  H  H461  1  0.74960617  0.95284781  0.29171193  1
  C  C462  1  0.65190886  0.96776012  0.42540849  1
  H  H463  1  0.51068298  0.93908629  0.40894197  1
  C  C464  1  0.67322031  0.98149831  0.28802158  1
  H  H465  1  0.69330229  0.97387037  0.43215710  1
  H  H466  1  0.75320246  0.50401736  0.43964128  1
  C  C467  1  0.75491859  0.69996799  0.46494912  1
  C  C468  1  0.90263282  0.51674758  0.48863920  1
  C  C469  1  0.85999938  0.51793048  0.45721808  1
  C  C470  1  0.76151371  0.59881011  0.42488092  1
  H  H471  1  0.83446059  0.71477760  0.48066099  1
  C  C472  1  0.94559488  0.95767338  0.37126859  1
  H  H473  1  0.92816795  0.89253467  0.39797482  1
  C  C474  1  0.99466727  0.99109255  0.38015412  1
  O  O475  1  0.80535970  0.59031819  0.39075255  1
  H  H476  1  0.96665359  0.74187763  0.41898763  1
  O  O477  1  0.84200219  0.69607785  0.25637492  1
  C  C478  1  0.80154263  0.77886218  0.47215699  1
  C  C479  1  0.93458479  0.68040158  0.42769625  1
  H  H480  1  0.81150324  0.82563484  0.43339939  1
  C  C481  1  0.89009368  0.67306798  0.39896100  1
  C  C482  1  0.85309494  0.59213636  0.41488420  1
  O  O483  1  0.76575846  0.64513021  0.26963689  1
  H  H484  1  0.88434821  0.73554079  0.36526768  1
  C  C485  1  0.93647375  0.60224160  0.47126963  1
  O  O486  1  0.84379571  0.88992410  0.34408733  1
  H  H487  1  0.81732438  0.86817610  0.31934331  1
  H  H488  1  0.83717305  0.96836157  0.41677077  1
  C  C489  1  0.86969172  0.98387796  0.31152921  1
  Zn  Zn490  1  0.54635618  0.61830344  0.65876394  1
  C  C491  1  0.62084792  0.57018082  0.56453326  1
  C  C492  1  0.68867677  0.61912895  0.61875556  1
  C  C493  1  0.61265663  0.70019079  0.56179362  1
  C  C494  1  0.68045506  0.75026252  0.62022782  1
  H  H495  1  0.58752136  0.73945419  0.53487348  1
  C  C496  1  0.64091235  0.78606202  0.58733376  1
  H  H497  1  0.72285079  0.58197834  0.63381690  1
  O  O498  1  0.70990035  0.82270205  0.64843566  1
  H  H499  1  0.54539233  0.86165828  0.70559852  1
  C  C500  1  0.73983784  0.64729463  0.51512973  1
  H  H501  1  0.63515483  0.88774030  0.58272582  1
  C  C502  1  0.70338707  0.96592545  0.65467089  1
  C  C503  1  0.51798199  0.78934867  0.69355300  1
  H  H504  1  0.68524417  0.96871070  0.69310009  1
  C  C505  1  0.66246308  0.52567529  0.59398645  1
  C  C506  1  0.50598974  0.80091249  0.63890485  1
  C  C507  1  0.72222244  0.62874529  0.73887215  1
  H  H508  1  0.70070790  0.61005097  0.51872533  1
  H  H509  1  0.56276745  0.54812478  0.50618944  1
  C  C510  1  0.50211711  0.69906518  0.60449959  1
  H  H511  1  0.67398226  0.99440830  0.62533784  1
  H  H512  1  0.74415570  0.72311183  0.54474955  1
  O  O513  1  0.58469067  0.99463942  0.63782339  1
  C  C514  1  0.69024328  0.52177471  0.73488884  1
  C  C515  1  0.83897718  0.97256324  0.50064979  1
  C  C516  1  0.78978117  0.99815286  0.68128781  1
  C  C517  1  0.95506115  0.51243392  0.61998943  1
  O  O518  1  0.76038395  0.52487716  0.53606699  1
  C  C519  1  0.80377561  0.51903522  0.55844068  1
  C  C520  1  0.77064804  0.61973596  0.71491042  1
  C  C521  1  0.78448454  0.50801065  0.69158693  1
  H  H522  1  0.76220864  0.98153595  0.57558189  1
  O  O523  1  0.98382411  0.63086010  0.60067746  1
  C  C524  1  0.83389946  0.62624502  0.56586018  1
  O  O525  1  0.80614410  0.87747695  0.50930942  1
  H  H526  1  0.90182163  0.71947951  0.58994018  1
  C  C527  1  0.88118537  0.62598124  0.58676023  1
  C  C528  1  0.87816411  0.98663875  0.73968352  1
  H  H529  1  0.79640075  0.89694274  0.67518675  1
  C  C530  1  0.90227927  0.51172327  0.60329744  1
  H  H531  1  0.82013542  0.71709259  0.55251757  1
  H  H532  1  0.79867156  0.69464797  0.71834213  1
  H  H533  1  0.86213651  0.99803307  0.57663495  1
  C  C534  1  0.60482978  0.61520768  0.80468674  1
  C  C535  1  0.61972225  0.67055020  0.85019748  1
  C  C536  1  0.60029065  0.61981008  0.89533259  1
  H  H537  1  0.64072364  0.75811501  0.84875107  1
  O  O538  1  0.69153775  0.83970212  0.77960836  1
  Zn  Zn539  1  0.61729926  0.72223738  0.96093173  1
  C  C540  1  0.70098610  0.73021372  0.98162171  1
  C  C541  1  0.57707315  0.50500561  0.80771636  1
  C  C542  1  0.57642622  0.50159217  0.90053996  1
  C  C543  1  0.70797447  0.74848440  0.76195450  1
  O  O544  1  0.72407276  0.77619204  0.94759704  1
  H  H545  1  0.61699987  0.65204155  0.76739764  1
  H  H546  1  0.50567770  0.87284235  0.97248091  1
  O  O547  1  0.51684604  0.82985239  0.86984212  1
  H  H548  1  0.65397516  0.52474733  0.75328197  1
  H  H549  1  0.54182386  0.59654456  0.99972670  1
  O  O550  1  0.86522493  0.63446339  0.82313969  1
  C  C551  1  0.78603359  0.98920303  0.98533094  1
  O  O552  1  0.99344789  0.99116422  0.84161820  1
  C  C553  1  0.98171484  0.51432538  0.81436926  1
  C  C554  1  0.85347422  0.53061457  0.81299498  1
  H  H555  1  0.76914903  0.90641437  0.96303842  1
  C  C556  1  0.91167835  0.85167165  0.99812769  1
  C  C557  1  0.86226569  0.86654450  0.98644715  1
  O  O558  1  0.90975434  0.65610797  0.94914936  1
  O  O559  1  0.80238875  0.50986478  0.94962104  1
  C  C560  1  0.91686707  0.98493880  0.77312605  1
  H  H561  1  0.91144784  0.93779023  0.81110567  1
  H  H562  1  0.95187639  0.55339276  0.83907952  1
  C  C563  1  0.93146448  0.72178364  0.98433684  1
  H  H564  1  0.84100035  0.79467890  0.96520513  1
  H  H565  1  0.99536644  0.69025821  0.77525043  1
  O  O566  1  0.79245721  0.99814092  0.79996495  1
  H  H567  1  0.84095136  0.95192925  0.75234462  1
