# generated using pymatgen
data_Zn2H24(C11O4)3
_symmetry_space_group_name_H-M   'P 1'
_cell_length_a   11.17659784
_cell_length_b   34.66829470
_cell_length_c   16.13790285
_cell_angle_alpha   90.00000000
_cell_angle_beta   90.00000000
_cell_angle_gamma   90.00000000
_symmetry_Int_Tables_number   1
_chemical_formula_structural   Zn2H24(C11O4)3
_chemical_formula_sum   'Zn16 H192 C264 O96'
_cell_volume   6253.01111463
_cell_formula_units_Z   8
loop_
 _symmetry_equiv_pos_site_id
 _symmetry_equiv_pos_as_xyz
  1  'x, y, z'
loop_
 _atom_site_type_symbol
 _atom_site_label
 _atom_site_symmetry_multiplicity
 _atom_site_fract_x
 _atom_site_fract_y
 _atom_site_fract_z
 _atom_site_occupancy
  Zn  Zn0  1  0.26288416  0.18436810  0.12321513  1
  H  H1  1  0.34027109  0.06600651  0.15608397  1
  O  O2  1  0.09148184  0.20937281  0.16583293  1
  O  O3  1  0.38431165  0.22844138  0.08653168  1
  O  O4  1  0.31645548  0.13356780  0.17498641  1
  C  C5  1  0.28693120  0.02902207  0.03950813  1
  H  H6  1  0.18739886  0.08113960  0.04716309  1
  C  C7  1  0.27255411  0.06779390  0.02397922  1
  H  H8  1  0.20731066  0.01464398  0.06558972  1
  O  O9  1  0.26705085  0.14896803  0.00453529  1
  C  C10  1  0.01821454  0.23220179  0.13232935  1
  C  C11  1  0.39407381  0.00904640  0.02291047  1
  C  C12  1  0.36388669  0.05879079  0.21851091  1
  C  C13  1  0.48260372  0.23263011  0.12487852  1
  C  C14  1  0.01942125  0.01198940  0.19967462  1
  C  C15  1  0.37290557  0.01921976  0.23933258  1
  C  C16  1  0.36345165  0.12970578  0.24577589  1
  C  C17  1  0.00206461  0.33700021  0.08199607  1
  H  H18  1  0.45426432  0.36645420  0.10557150  1
  C  C19  1  0.23543607  0.40709709  0.15436673  1
  C  C20  1  0.34956531  0.49364396  0.15159817  1
  H  H21  1  0.25652960  0.33656724  0.19115423  1
  H  H22  1  0.23920471  0.43379643  0.11204823  1
  C  C23  1  0.49998731  0.33938151  0.13107914  1
  H  H24  1  0.29982293  0.38462684  0.13790784  1
  H  H25  1  0.37676766  0.30030215  0.07203882  1
  C  C26  1  0.17578638  0.32552642  0.16462161  1
  H  H27  1  0.37908501  0.48656312  0.01991458  1
  O  O28  1  0.13112894  0.38967861  0.11266508  1
  C  C29  1  0.46070757  0.30396806  0.11117210  1
  C  C30  1  0.14951681  0.28691939  0.17264618  1
  C  C31  1  0.24305551  0.42064644  0.24347219  1
  O  O32  1  0.41280384  0.46050936  0.18135113  1
  H  H33  1  0.21206516  0.26586233  0.20243402  1
  C  C34  1  0.10549916  0.35246130  0.12085549  1
  C  C35  1  0.04518142  0.27371909  0.13103893  1
  H  H36  1  0.16795041  0.47758155  0.22904924  1
  H  H37  1  0.15362497  0.04931375  0.40725891  1
  C  C38  1  0.11335631  0.03868862  0.34738706  1
  C  C39  1  0.42662288  0.08035964  0.35428901  1
  C  C40  1  0.43752794  0.04168636  0.37214595  1
  C  C41  1  0.41223303  0.22127471  0.48971377  1
  O  O42  1  0.04745206  0.11681549  0.39176291  1
  C  C43  1  0.38797366  0.08760536  0.27466069  1
  O  O44  1  0.39848673  0.15634941  0.28642278  1
  H  H45  1  0.45292544  0.10347425  0.39981344  1
  C  C46  1  0.04463447  0.06379189  0.29785166  1
  C  C47  1  0.40520291  0.00976810  0.32173575  1
  H  H48  1  0.03972380  0.22563988  0.35644429  1
  C  C49  1  0.13522851  0.00107400  0.31983527  1
  H  H50  1  0.47314466  0.03631397  0.43365086  1
  C  C51  1  0.01153600  0.10434565  0.32258424  1
  O  O52  1  0.04585182  0.19432606  0.48588321  1
  H  H53  1  0.00262851  0.28224368  0.26945115  1
  C  C54  1  0.44917583  0.30504298  0.34754061  1
  H  H55  1  0.38614076  0.45508446  0.30850382  1
  C  C56  1  0.38790358  0.25525919  0.43540373  1
  H  H57  1  0.49360618  0.49421596  0.26651059  1
  C  C58  1  0.15777906  0.45094891  0.27095428  1
  C  C59  1  0.47835521  0.27083446  0.38622435  1
  H  H60  1  0.06038629  0.44293461  0.26587913  1
  H  H61  1  0.16662233  0.32589464  0.40438369  1
  H  H62  1  0.21513391  0.26748937  0.48241233  1
  C  C63  1  0.01243115  0.25952929  0.46651360  1
  H  H64  1  0.16899222  0.36930719  0.29067083  1
  C  C65  1  0.01540630  0.25390804  0.38099748  1
  H  H66  1  0.23359239  0.40092675  0.36909358  1
  C  C67  1  0.35115860  0.32996829  0.35156723  1
  C  C68  1  0.28539415  0.27900029  0.44422710  1
  H  H69  1  0.40370646  0.42120282  0.46992992  1
  C  C70  1  0.25892457  0.31262859  0.39855234  1
  C  C71  1  0.24685036  0.38854112  0.30637633  1
  H  H72  1  0.44958058  0.37353837  0.49208685  1
  O  O73  1  0.18208255  0.46783090  0.35358772  1
  O  O74  1  0.34812623  0.36292076  0.30243460  1
  C  C75  1  0.36983673  0.43857366  0.25095177  1
  H  H76  1  0.43926098  0.41549337  0.25411251  1
  O  O77  1  0.35034625  0.22026818  0.70927505  1
  C  C78  1  0.16164813  0.09999268  0.58595736  1
  O  O79  1  0.26338390  0.11471552  0.60062678  1
  Zn  Zn80  1  0.32108403  0.16967268  0.62850761  1
  O  O81  1  0.06717452  0.11978144  0.58968241  1
  C  C82  1  0.15693417  0.05891473  0.56453386  1
  C  C83  1  0.26400292  0.03798633  0.55234530  1
  O  O84  1  0.05152748  0.23218324  0.59799057  1
  C  C85  1  0.04900452  0.03851561  0.54282242  1
  C  C86  1  0.27699283  0.24807079  0.71690807  1
  H  H87  1  0.35338633  0.05061443  0.57260689  1
  Zn  Zn88  1  0.01126050  0.21673563  0.72163569  1
  H  H89  1  0.02742432  0.02406237  0.68778259  1
  C  C90  1  0.03929139  0.22603137  0.52216924  1
  C  C91  1  0.09402925  0.04029047  0.72705991  1
  C  C92  1  0.07626838  0.07914491  0.74222844  1
  O  O93  1  0.32674116  0.20829996  0.53523722  1
  H  H94  1  0.00141632  0.09400840  0.71433027  1
  C  C95  1  0.05465891  0.00166208  0.51530558  1
  C  C96  1  0.26439691  0.00148357  0.51890876  1
  C  C97  1  0.21610718  0.35123293  0.66343481  1
  H  H98  1  0.21065139  0.46771007  0.73801941  1
  H  H99  1  0.16343063  0.37654462  0.68790013  1
  H  H100  1  0.47983866  0.47303188  0.58580046  1
  H  H101  1  0.46425941  0.33511475  0.54466288  1
  C  C102  1  0.20016628  0.31531886  0.69643643  1
  O  O103  1  0.34688842  0.48850446  0.67015816  1
  C  C104  1  0.43532444  0.40223985  0.51997451  1
  C  C105  1  0.38269615  0.29394671  0.62417632  1
  C  C106  1  0.28595944  0.28630365  0.67493337  1
  C  C107  1  0.38609030  0.32993199  0.58586212  1
  H  H108  1  0.45266812  0.26992315  0.61317218  1
  C  C109  1  0.30655412  0.36096874  0.60388580  1
  O  O110  1  0.32321771  0.39596623  0.57464527  1
  H  H111  1  0.29914754  0.43316319  0.67157640  1
  C  C112  1  0.30098709  0.45588910  0.72527805  1
  H  H113  1  0.47627609  0.39823765  0.73780555  1
  H  H114  1  0.13853634  0.31132340  0.74942474  1
  O  O115  1  0.22183069  0.16330061  0.83910655  1
  C  C116  1  0.13889619  0.14268470  0.80718356  1
  H  H117  1  0.32090082  0.09962405  0.86039310  1
  C  C118  1  0.25625875  0.08335878  0.82155439  1
  C  C119  1  0.15281129  0.10128912  0.79029333  1
  H  H120  1  0.35407392  0.03347527  0.83107916  1
  C  C121  1  0.27168048  0.04501172  0.80423527  1
  H  H122  1  0.11382523  0.03634176  0.90014863  1
  Zn  Zn123  1  0.40146886  0.17756953  0.81484885  1
  O  O124  1  0.44576196  0.15228948  0.94859977  1
  O  O125  1  0.04847578  0.15821740  0.77721543  1
  C  C126  1  0.19876703  0.02164764  0.75379305  1
  C  C127  1  0.47903920  0.07181599  0.98027460  1
  C  C128  1  0.35615107  0.13258125  0.97998211  1
  C  C129  1  0.48892574  0.03307238  0.99548210  1
  O  O130  1  0.18920844  0.24442988  0.76103082  1
  C  C131  1  0.02921171  0.04226654  0.93443606  1
  H  H132  1  0.02659110  0.10517739  0.89961300  1
  H  H133  1  0.19714535  0.00075373  0.95894787  1
  C  C134  1  0.36847864  0.09019859  0.99448378  1
  O  O135  1  0.46535676  0.38922901  0.87029170  1
  C  C136  1  0.46845248  0.46753112  0.82626349  1
  C  C137  1  0.27049505  0.43809695  0.86529860  1
  C  C138  1  0.10568174  0.39078797  0.85134419  1
  C  C139  1  0.01779416  0.37672330  0.79914248  1
  C  C140  1  0.36523174  0.44242605  0.80190324  1
  C  C141  1  0.15105117  0.36312114  0.90889783  1
  C  C142  1  0.41235935  0.40154445  0.79073186  1
  H  H143  1  0.26259455  0.46680099  0.89725966  1
  C  C144  1  0.00480757  0.31386792  0.86895592  1
  H  H145  1  0.49566526  0.48892747  0.77813458  1
  H  H146  1  0.13794109  0.30640613  0.96161380  1
  H  H147  1  0.33150604  0.38051119  0.77388623  1
  O  O148  1  0.14584765  0.42735311  0.83624351  1
  C  C149  1  0.10009562  0.32642011  0.91722428  1
  H  H150  1  0.29294614  0.41589115  0.91345618  1
  H  H151  1  0.22994357  0.37309580  0.94676075  1
  C  C152  1  0.46502351  0.32357733  0.82085821  1
  C  C153  1  0.49376395  0.28494239  0.82593728  1
  H  H154  1  0.41041060  0.32887545  0.76594682  1
  O  O155  1  0.45058135  0.49926590  0.89740293  1
  C  C156  1  0.49170043  0.35257681  0.87956334  1
  H  H157  1  0.47387745  0.26333907  0.77752317  1
  C  C158  1  0.24530047  0.55630518  0.17220061  1
  C  C159  1  0.23663397  0.56383669  0.08739650  1
  O  O160  1  0.12920148  0.62200537  0.10112713  1
  C  C161  1  0.30259498  0.52293087  0.19952030  1
  C  C162  1  0.17712120  0.59941366  0.05130000  1
  H  H163  1  0.21236792  0.57665372  0.21954524  1
  H  H164  1  0.05272500  0.50764388  0.11568164  1
  C  C165  1  0.29605382  0.53803315  0.03314432  1
  C  C166  1  0.34189299  0.50490452  0.06824748  1
  H  H167  1  0.48629916  0.55356478  0.03418848  1
  O  O168  1  0.00377921  0.71188695  0.11121037  1
  H  H169  1  0.02499138  0.95422489  0.11834503  1
  C  C170  1  0.08425366  0.98616622  0.24890310  1
  C  C171  1  0.20782941  0.83030377  0.24290502  1
  C  C172  1  0.31154817  0.94422884  0.03122333  1
  H  H173  1  0.35347236  0.99792697  0.19301616  1
  C  C174  1  0.13734373  0.78234219  0.14505069  1
  C  C175  1  0.05585887  0.76544265  0.19831305  1
  C  C176  1  0.20820001  0.81412674  0.16318145  1
  H  H177  1  0.09233331  0.90730110  0.12866487  1
  H  H178  1  0.24723884  0.95626502  0.08275869  1
  O  O179  1  0.41305489  0.97069661  0.03141501  1
  H  H180  1  0.15052822  0.76977786  0.08213268  1
  O  O181  1  0.10411961  0.94675182  0.22784475  1
  H  H182  1  0.27098114  0.82817925  0.11997792  1
  C  C183  1  0.03855342  0.92953097  0.16128929  1
  H  H184  1  0.34832543  0.91538694  0.05064659  1
  C  C185  1  0.08423753  0.56972679  0.32677683  1
  O  O186  1  0.10049942  0.64988701  0.31886127  1
  C  C187  1  0.08680009  0.52952066  0.32329069  1
  C  C188  1  0.17656688  0.58945236  0.36835491  1
  C  C189  1  0.25079807  0.53117399  0.41006382  1
  C  C190  1  0.26489108  0.57104322  0.41306052  1
  C  C191  1  0.17636189  0.63123996  0.36606167  1
  O  O192  1  0.23667013  0.64899030  0.41782983  1
  Zn  Zn193  1  0.39876728  0.68482308  0.42926657  1
  H  H194  1  0.30979493  0.51201326  0.44904036  1
  H  H195  1  0.33872454  0.58560775  0.44382413  1
  C  C196  1  0.17320892  0.50795809  0.36277206  1
  O  O197  1  0.02951566  0.72626682  0.43864002  1
  H  H198  1  0.01959067  0.51204583  0.29015350  1
  H  H199  1  0.01273027  0.58569461  0.29336398  1
  H  H200  1  0.48285364  0.56498774  0.26121113  1
  O  O201  1  0.48573859  0.62940335  0.46001388  1
  O  O202  1  0.48513812  0.62896136  0.32338768  1
  H  H203  1  0.30870876  0.52001618  0.26795989  1
  C  C204  1  0.49699156  0.61090057  0.39412566  1
  O  O205  1  0.48273380  0.73292941  0.37149412  1
  C  C206  1  0.35036727  0.77660926  0.49030823  1
  H  H207  1  0.32547790  0.75558785  0.44252022  1
  C  C208  1  0.24782163  0.87462948  0.35521800  1
  C  C209  1  0.16180674  0.98078174  0.49490596  1
  H  H210  1  0.35798521  0.82064004  0.40044205  1
  H  H211  1  0.19789260  0.98218583  0.35475864  1
  C  C212  1  0.38284822  0.81286250  0.46655040  1
  H  H213  1  0.10534880  0.82909307  0.35570374  1
  H  H214  1  0.15361232  0.88680471  0.35089871  1
  C  C215  1  0.33055809  0.90592620  0.37975331  1
  C  C216  1  0.44990830  0.88741082  0.40408818  1
  O  O217  1  0.41330246  0.97310567  0.35368563  1
  C  C218  1  0.28456484  0.92463776  0.45779643  1
  H  H219  1  0.26543656  0.94597724  0.29504033  1
  O  O220  1  0.27298776  0.86017280  0.26776074  1
  H  H221  1  0.40154711  0.92776343  0.26730584  1
  O  O222  1  0.16235216  0.94658361  0.45894348  1
  C  C223  1  0.11824507  0.81541481  0.29494199  1
  C  C224  1  0.35456286  0.93850798  0.32065486  1
  H  H225  1  0.47183229  0.86621356  0.35614964  1
  C  C226  1  0.04493655  0.78483948  0.27559736  1
  H  H227  1  0.25077147  0.85067458  0.40032304  1
  H  H228  1  0.01989656  0.88359117  0.27985990  1
  H  H229  1  0.34632188  0.94876625  0.47521796  1
  O  O230  1  0.47083140  0.87620963  0.49080192  1
  H  H231  1  0.15772654  0.77097938  0.49992357  1
  C  C232  1  0.20661114  0.58074776  0.60827207  1
  C  C233  1  0.15193008  0.59282391  0.68204762  1
  C  C234  1  0.27770983  0.54787714  0.60756086  1
  O  O235  1  0.34214075  0.69974013  0.54933939  1
  C  C236  1  0.36889006  0.72606428  0.60076762  1
  O  O237  1  0.38672832  0.72000452  0.67676570  1
  C  C238  1  0.28733166  0.52268928  0.67625858  1
  H  H239  1  0.19152260  0.59786962  0.55024231  1
  O  O240  1  0.05481181  0.65064419  0.62413990  1
  C  C241  1  0.07761647  0.63000461  0.68259527  1
  H  H242  1  0.32559236  0.54042297  0.55051021  1
  H  H243  1  0.49085606  0.59137207  0.65304619  1
  C  C244  1  0.22391662  0.53459147  0.74719235  1
  H  H245  1  0.48071235  0.52342926  0.62501901  1
  H  H246  1  0.06407574  0.84919867  0.74229424  1
  C  C247  1  0.44760599  0.82845527  0.59982465  1
  O  O248  1  0.22461437  0.98493796  0.73461139  1
  H  H249  1  0.49458308  0.84823154  0.64486429  1
  C  C250  1  0.09153523  0.79300033  0.51368137  1
  C  C251  1  0.04598877  0.85853993  0.57052642  1
  H  H252  1  0.20391578  0.93631922  0.66181093  1
  C  C253  1  0.14044080  0.95956891  0.68428768  1
  H  H254  1  0.27315026  0.90339839  0.51059507  1
  C  C255  1  0.12354663  0.82784856  0.54987134  1
  H  H256  1  0.43775065  0.78397912  0.69697438  1
  C  C257  1  0.43782465  0.84068757  0.51738737  1
  C  C258  1  0.41816681  0.79284552  0.63046597  1
  C  C259  1  0.47434121  0.95648294  0.74560702  1
  C  C260  1  0.02358156  0.94439527  0.71322684  1
  H  H261  1  0.12585560  0.97850846  0.63135766  1
  H  H262  1  0.21700676  0.83253380  0.56135497  1
  C  C263  1  0.37197192  0.76657173  0.57311534  1
  O  O264  1  0.07991042  0.88918023  0.61421805  1
  H  H265  1  0.35098986  0.98937684  0.50224831  1
  Zn  Zn266  1  0.08572843  0.63651199  0.88318104  1
  H  H267  1  0.29033547  0.54112936  0.96462259  1
  H  H268  1  0.11388992  0.57705867  0.80890289  1
  O  O269  1  0.13450983  0.69391962  0.86321745  1
  O  O270  1  0.17589271  0.60348140  0.97387431  1
  C  C271  1  0.06388054  0.72206885  0.86071639  1
  O  O272  1  0.03573976  0.63988238  0.75429598  1
  H  H273  1  0.29255754  0.73805217  0.91338770  1
  H  H274  1  0.21370827  0.51367727  0.79768080  1
  C  C275  1  0.16093049  0.56972252  0.75161018  1
  H  H276  1  0.42932481  0.98143754  0.77001219  1
  C  C277  1  0.03709423  0.79115616  0.89693209  1
  C  C278  1  0.24131459  0.93847332  0.95245328  1
  H  H279  1  0.01322786  0.85013679  0.92424081  1
  C  C280  1  0.07907813  0.82648936  0.92480609  1
  C  C281  1  0.16436651  0.90228777  0.95543705  1
  H  H282  1  0.08267580  0.90368224  0.99322379  1
  C  C283  1  0.11119503  0.75845900  0.89821094  1
  H  H284  1  0.05918598  0.94009945  0.84873323  1
  C  C285  1  0.27249761  0.79900392  0.94377035  1
  H  H286  1  0.10722046  0.89735859  0.78230770  1
  C  C287  1  0.19714406  0.83267665  0.95079935  1
  O  O288  1  0.40379607  0.90948814  0.84916302  1
  C  C289  1  0.03704914  0.92094443  0.79173705  1
  H  H290  1  0.28497699  0.95194384  0.81966256  1
  O  O291  1  0.23489129  0.86699808  0.97772086  1
  O  O292  1  0.47113194  0.78379335  0.84199306  1
  O  O293  1  0.03735213  0.97365570  0.97784361  1
  C  C294  1  0.47021038  0.91982619  0.78523417  1
  C  C295  1  0.15958904  0.97253119  0.93863853  1
  C  C296  1  0.32486878  0.94220084  0.87965517  1
  H  H297  1  0.40279507  0.96183657  0.89426676  1
  C  C298  1  0.23500330  0.76389512  0.92033491  1
  H  H299  1  0.14107783  0.89360586  0.89098997  1
  H  H300  1  0.14583836  0.97724194  0.86947878  1
  H  H301  1  0.36620988  0.80282815  0.95877275  1
  O  O302  1  0.55426353  0.20604726  0.13697173  1
  O  O303  1  0.92199749  0.22021872  0.09880235  1
  H  H304  1  0.62496913  0.03315444  0.17817989  1
  H  H305  1  0.74831630  0.05909145  0.05402103  1
  Zn  Zn306  1  0.59054536  0.16945059  0.03077388  1
  H  H307  1  0.93440806  0.06713170  0.19049320  1
  O  O308  1  0.71608305  0.12211537  0.02560015  1
  C  C309  1  0.82336174  0.05355369  0.01635556  1
  C  C310  1  0.67468523  0.03110998  0.23345078  1
  C  C311  1  0.87725388  0.01706141  0.01441255  1
  H  H312  1  0.97903116  0.00133726  0.14108989  1
  C  C313  1  0.99994503  0.05025508  0.22317337  1
  C  C314  1  0.75966061  0.48963212  0.14673241  1
  C  C315  1  0.62273461  0.27949289  0.19868824  1
  H  H316  1  0.62994557  0.29096419  0.01880964  1
  H  H317  1  0.69091890  0.46547938  0.15315933  1
  H  H318  1  0.94087969  0.38557123  0.18379111  1
  C  C319  1  0.60332790  0.34834601  0.18027328  1
  H  H320  1  0.89118882  0.28693404  0.05021146  1
  O  O321  1  0.62721061  0.38530300  0.20031416  1
  H  H322  1  0.80421008  0.40220620  0.14363770  1
  C  C323  1  0.52639454  0.27358119  0.14673727  1
  H  H324  1  0.66529089  0.25325757  0.22756127  1
  C  C325  1  0.65813926  0.31672822  0.21798918  1
  C  C326  1  0.88300729  0.41057740  0.18715539  1
  C  C327  1  0.88209652  0.47976509  0.14471838  1
  C  C328  1  0.97244196  0.29845632  0.08230553  1
  H  H329  1  0.94284002  0.35649128  0.04560913  1
  O  O330  1  0.93436715  0.44376845  0.14673026  1
  C  C331  1  0.74416252  0.06428913  0.35579477  1
  C  C332  1  0.81971417  0.03265384  0.37711310  1
  C  C333  1  0.73728964  0.09487247  0.42246915  1
  H  H334  1  0.87258734  0.03413767  0.43642178  1
  H  H335  1  0.74357536  0.22973224  0.45988945  1
  O  O336  1  0.65372580  0.11960413  0.42047738  1
  C  C337  1  0.66865759  0.06161307  0.28810713  1
  C  C338  1  0.81820449  0.00151656  0.32443166  1
  O  O339  1  0.50979039  0.20330825  0.47547768  1
  H  H340  1  0.60715157  0.08643702  0.27300474  1
  Zn  Zn341  1  0.94616943  0.14284224  0.49834113  1
  O  O342  1  0.81870479  0.09602600  0.47408732  1
  O  O343  1  0.95749949  0.12394662  0.27180657  1
  C  C344  1  0.95713142  0.32582180  0.45024060  1
  H  H345  1  0.56095234  0.25404720  0.37900098  1
  H  H346  1  0.92916602  0.35638105  0.47103021  1
  H  H347  1  0.97599855  0.40763486  0.36156200  1
  C  C348  1  0.99430757  0.28720985  0.33678329  1
  O  O349  1  0.55090736  0.44804330  0.39763137  1
  C  C350  1  0.90198817  0.38927832  0.33744443  1
  C  C351  1  0.81636553  0.45180763  0.30592610  1
  C  C352  1  0.61460478  0.42853838  0.47156637  1
  C  C353  1  0.82917378  0.41255506  0.27345122  1
  H  H354  1  0.70825078  0.36460218  0.31243872  1
  H  H355  1  0.88681168  0.47082027  0.27679303  1
  H  H356  1  0.69577698  0.44814044  0.48512804  1
  H  H357  1  0.72342065  0.46390587  0.29685783  1
  C  C358  1  0.68940854  0.28960043  0.48732739  1
  H  H359  1  0.50989103  0.31809960  0.30151600  1
  C  C360  1  0.96354920  0.32429169  0.36472209  1
  O  O361  1  0.94327793  0.35231206  0.30491531  1
  H  H362  1  0.67319568  0.29880682  0.42307500  1
  O  O363  1  0.85090557  0.46861843  0.39442046  1
  H  H364  1  0.64745862  0.41483012  0.30245450  1
  H  H365  1  0.65652365  0.40350885  0.44210389  1
  C  C366  1  0.53658227  0.48604247  0.39547781  1
  H  H367  1  0.84337698  0.37989704  0.39372370  1
  C  C368  1  0.70901382  0.39235578  0.27726911  1
  H  H369  1  0.74269460  0.32113255  0.25572434  1
  C  C370  1  0.79349619  0.20047305  0.60935375  1
  C  C371  1  0.65112217  0.06898340  0.61654246  1
  O  O372  1  0.82890658  0.19188806  0.68074370  1
  C  C373  1  0.62474981  0.08544308  0.69414684  1
  C  C374  1  0.72869993  0.03775790  0.60839058  1
  C  C375  1  0.78625408  0.01916048  0.67551419  1
  H  H376  1  0.61076026  0.08045451  0.56078818  1
  O  O377  1  0.78544084  0.17428958  0.55059417  1
  H  H378  1  0.74519826  0.02987692  0.54261274  1
  C  C379  1  0.53719773  0.11676958  0.69857886  1
  H  H380  1  0.95960446  0.05228234  0.55270520  1
  Zn  Zn381  1  0.60651865  0.15748508  0.52570492  1
  C  C382  1  0.76283766  0.24208679  0.58646426  1
  O  O383  1  0.50402417  0.13662417  0.63527625  1
  H  H384  1  0.50238631  0.44141481  0.66795045  1
  C  C385  1  0.73331172  0.25336698  0.50622620  1
  H  H386  1  0.98631927  0.29903215  0.57088089  1
  H  H387  1  0.56898693  0.36728167  0.63828307  1
  H  H388  1  0.70895743  0.32657122  0.68469228  1
  O  O389  1  0.65860696  0.47178308  0.63674067  1
  H  H390  1  0.57910029  0.49410059  0.52648143  1
  C  C391  1  0.62192743  0.38535265  0.59396133  1
  C  C392  1  0.75255645  0.27003069  0.65093847  1
  C  C393  1  0.71543709  0.30681599  0.62822260  1
  O  O394  1  0.64132353  0.35428199  0.52538240  1
  C  C395  1  0.67903555  0.31851854  0.54755203  1
  H  H396  1  0.69955361  0.39424601  0.63187374  1
  H  H397  1  0.76446076  0.26372861  0.71611522  1
  C  C398  1  0.55335122  0.41657099  0.55178424  1
  C  C399  1  0.54191875  0.44915979  0.60833114  1
  H  H400  1  0.98142928  0.39493712  0.74912494  1
  C  C401  1  0.98567139  0.29531581  0.50201195  1
  O  O402  1  0.66305843  0.21956328  0.96304363  1
  C  C403  1  0.59856782  0.23189121  0.89895030  1
  H  H404  1  0.80316637  0.02675951  0.81397277  1
  H  H405  1  0.67391766  0.07917733  0.82494379  1
  O  O406  1  0.56732888  0.21012702  0.84364640  1
  O  O407  1  0.83251548  0.15036756  0.93752710  1
  H  H408  1  0.56264844  0.08669119  0.95493929  1
  Zn  Zn409  1  0.85252518  0.21270344  0.97893628  1
  C  C410  1  0.87386902  0.08444045  0.97304450  1
  C  C411  1  0.98338135  0.00813183  0.97265650  1
  C  C412  1  0.98375112  0.07932177  0.93525229  1
  O  O413  1  0.51096177  0.12948278  0.76784656  1
  C  C414  1  0.80361226  0.12141640  0.97691476  1
  H  H415  1  0.57378991  0.01879692  0.98077875  1
  C  C416  1  0.76034315  0.03681985  0.75293161  1
  C  C417  1  0.68161667  0.06728139  0.76104968  1
  O  O418  1  0.99533743  0.25162281  0.93711214  1
  C  C419  1  0.96660982  0.34004318  0.80862705  1
  H  H420  1  0.90705002  0.33227035  0.75899869  1
  C  C421  1  0.58734649  0.29936729  0.95781614  1
  C  C422  1  0.55815359  0.33720719  0.94789914  1
  O  O423  1  0.92660883  0.25660965  0.81061147  1
  H  H424  1  0.68757136  0.48742547  0.84157117  1
  H  H425  1  0.54584616  0.45166203  0.84801850  1
  C  C426  1  0.96682648  0.27189932  0.87525331  1
  C  C427  1  0.56086104  0.27247048  0.89474609  1
  H  H428  1  0.58043976  0.35944362  0.99397911  1
  C  C429  1  0.72137710  0.52780231  0.14870059  1
  C  C430  1  0.80352617  0.55897666  0.13982933  1
  C  C431  1  0.76444403  0.59925579  0.15647648  1
  H  H432  1  0.62409895  0.53406988  0.15517649  1
  O  O433  1  0.65639462  0.60824798  0.18073812  1
  O  O434  1  0.84112023  0.62550491  0.16326950  1
  C  C435  1  0.92535907  0.55031560  0.12740276  1
  H  H436  1  0.66433310  0.59491925  0.04739885  1
  C  C437  1  0.99750546  0.72764542  0.17910106  1
  C  C438  1  0.95769403  0.51186667  0.12551092  1
  O  O439  1  0.93557733  0.71474068  0.23974409  1
  Zn  Zn440  1  0.95755173  0.65291737  0.07860434  1
  H  H441  1  0.74994366  0.74863500  0.21199074  1
  H  H442  1  0.98645256  0.57458354  0.11760253  1
  C  C443  1  0.80168482  0.83699954  0.03011656  1
  H  H444  1  0.90575963  0.78420712  0.02480951  1
  C  C445  1  0.84564752  0.93882862  0.22479067  1
  H  H446  1  0.81744401  0.91793217  0.06288424  1
  H  H447  1  0.82756671  0.99516952  0.04882794  1
  C  C448  1  0.91714616  0.90897105  0.18132872  1
  C  C449  1  0.94735070  0.87549721  0.23551866  1
  O  O450  1  0.75488530  0.96993393  0.19633861  1
  H  H451  1  0.86304265  0.80820346  0.19928333  1
  C  C452  1  0.68873294  0.85176905  0.00402924  1
  C  C453  1  0.84500815  0.89546296  0.10935013  1
  H  H454  1  0.97214020  0.85143125  0.19975073  1
  O  O455  1  0.87960564  0.85626015  0.07310773  1
  H  H456  1  0.75880301  0.88252709  0.13196124  1
  H  H457  1  0.67432294  0.88084640  0.02084331  1
  C  C458  1  0.82022585  0.79875974  0.00475111  1
  C  C459  1  0.74811571  0.99872250  0.24976079  1
  H  H460  1  0.91457357  0.96127673  0.24049503  1
  C  C461  1  0.79460057  0.80738653  0.24825065  1
  C  C462  1  0.80333819  0.56991000  0.34148981  1
  H  H463  1  0.78516783  0.58725242  0.28550842  1
  C  C464  1  0.81085991  0.52987274  0.33808905  1
  Zn  Zn465  1  0.96076872  0.68529028  0.35532041  1
  C  C466  1  0.80368875  0.58770140  0.41851530  1
  O  O467  1  0.79967171  0.65082801  0.35538728  1
  C  C468  1  0.78965849  0.63125229  0.42733402  1
  C  C469  1  0.55767299  0.50962010  0.46625598  1
  H  H470  1  0.78762977  0.51814612  0.27732003  1
  C  C471  1  0.56605363  0.73538936  0.31841288  1
  C  C472  1  0.54791472  0.54885212  0.47224136  1
  Zn  Zn473  1  0.65304330  0.65027289  0.27541088  1
  O  O474  1  0.84696416  0.74070627  0.42362069  1
  C  C475  1  0.84265185  0.52594712  0.48210523  1
  O  O476  1  0.58062989  0.70945065  0.26456308  1
  C  C477  1  0.52175824  0.56784362  0.39599781  1
  C  C478  1  0.83897148  0.50631189  0.40576857  1
  O  O479  1  0.78050663  0.64845421  0.49059602  1
  C  C480  1  0.81630325  0.56491768  0.48908360  1
  C  C481  1  0.50904739  0.50935198  0.32703937  1
  C  C482  1  0.50139025  0.54869443  0.32029122  1
  C  C483  1  0.94485964  0.75134027  0.45070476  1
  C  C484  1  0.96757863  0.78742974  0.49541264  1
  H  H485  1  0.52556032  0.90910704  0.40642521  1
  H  H486  1  0.55528421  0.79499214  0.41996416  1
  C  C487  1  0.72637098  0.77454228  0.25195592  1
  H  H488  1  0.78144936  0.81211533  0.49884463  1
  C  C489  1  0.61979619  0.80081268  0.37083771  1
  C  C490  1  0.69590613  0.83193951  0.36404111  1
  H  H491  1  0.80431031  0.92676925  0.28712094  1
  O  O492  1  0.85340863  0.87025723  0.30664708  1
  C  C493  1  0.78822841  0.83836341  0.30660115  1
  H  H494  1  0.67521837  0.85306630  0.41455528  1
  H  H495  1  0.88285637  0.97827625  0.33919749  1
  H  H496  1  0.98020903  0.77534370  0.32386042  1
  C  C497  1  0.63558639  0.77128984  0.31216221  1
  C  C498  1  0.57119095  0.57274870  0.66746620  1
  C  C499  1  0.67825531  0.59039299  0.69083820  1
  C  C500  1  0.76654435  0.52760601  0.68898042  1
  C  C501  1  0.56401806  0.53387996  0.65391195  1
  O  O502  1  0.85386005  0.74037141  0.65907988  1
  C  C503  1  0.77804794  0.56666584  0.70556572  1
  H  H504  1  0.80119962  0.57823013  0.55087769  1
  H  H505  1  0.84407853  0.50787186  0.69263420  1
  C  C506  1  0.66428150  0.50850378  0.65934210  1
  O  O507  1  0.58738814  0.65054309  0.69713388  1
  C  C508  1  0.68549168  0.63317600  0.70466200  1
  H  H509  1  0.86465678  0.50859739  0.53826763  1
  H  H510  1  0.86607402  0.57731264  0.72759682  1
  H  H511  1  0.57071632  0.56553285  0.53002373  1
  Zn  Zn512  1  0.91332221  0.68963025  0.71569019  1
  O  O513  1  0.77784523  0.64914890  0.73622800  1
  Zn  Zn514  1  0.56116391  0.70773235  0.73566413  1
  O  O515  1  0.65912189  0.75301020  0.66904931  1
  H  H516  1  0.91491893  0.89708926  0.66670843  1
  C  C517  1  0.54873293  0.96311637  0.67903009  1
  O  O518  1  0.75874466  0.91968339  0.52918203  1
  H  H519  1  0.99155968  0.78581470  0.69523936  1
  C  C520  1  0.61782292  0.93610892  0.64054731  1
  C  C521  1  0.92556188  0.97194576  0.73554314  1
  C  C522  1  0.99137118  0.91614437  0.64238435  1
  H  H523  1  0.66102141  0.87586528  0.64416230  1
  O  O524  1  0.87520920  0.99345992  0.66297178  1
  C  C525  1  0.92613997  0.84866715  0.54902344  1
  C  C526  1  0.92620005  0.80681016  0.72091453  1
  C  C527  1  0.61143512  0.89921757  0.67525551  1
  C  C528  1  0.76720692  0.76140588  0.68018316  1
  C  C529  1  0.69183179  0.94342248  0.55716671  1
  H  H530  1  0.55036347  0.99334991  0.65463230  1
  H  H531  1  0.95941244  0.93213538  0.58801938  1
  C  C532  1  0.80162558  0.79834514  0.72203709  1
  H  H533  1  0.85989328  0.87159673  0.56479019  1
  C  C534  1  0.54207996  0.89196414  0.74421307  1
  C  C535  1  0.87838748  0.81605025  0.51126105  1
  O  O536  1  0.66645787  0.97297155  0.51297039  1
  H  H537  1  0.97123639  0.98762817  0.50692728  1
  C  C538  1  0.76200800  0.54540112  0.87915489  1
  C  C539  1  0.74193287  0.58173477  0.92313178  1
  Zn  Zn540  1  0.57877612  0.57016044  0.85996187  1
  C  C541  1  0.84509012  0.60809017  0.93352216  1
  H  H542  1  0.85476251  0.53690965  0.86075641  1
  O  O543  1  0.95892963  0.72195358  0.83140633  1
  O  O544  1  0.94255864  0.59668427  0.90509944  1
  O  O545  1  0.59476109  0.73540231  0.84779354  1
  C  C546  1  0.54930836  0.51832673  0.91753730  1
  C  C547  1  0.66513328  0.51377330  0.87454840  1
  H  H548  1  0.76539635  0.74643990  0.93778479  1
  O  O549  1  0.83415852  0.63720886  0.97995741  1
  C  C550  1  0.55096231  0.55086523  0.97932974  1
  C  C551  1  0.64758225  0.58320613  0.98521525  1
  C  C552  1  0.88906204  0.86894062  0.78413101  1
  H  H553  1  0.52461890  0.84183176  0.93217363  1
  H  H554  1  0.95772280  0.98984934  0.78757744  1
  H  H555  1  0.70868671  0.88083668  0.81677319  1
  H  H556  1  0.53600582  0.86118433  0.76016155  1
  C  C557  1  0.74615864  0.77617261  0.95650377  1
  C  C558  1  0.76586005  0.85860825  0.78819032  1
  O  O559  1  0.92341104  0.90257573  0.81619024  1
  H  H560  1  0.94551935  0.78895107  0.87144504  1
  C  C561  1  0.56050701  0.76936536  0.86882396  1
  C  C562  1  0.61092918  0.83054077  0.95622454  1
  C  C563  1  0.72142676  0.82435530  0.75601123  1
  H  H564  1  0.62685367  0.81884025  0.76294403  1
  C  C565  1  0.64227946  0.79331125  0.92761722  1
  C  C566  1  0.96764235  0.84084575  0.75027096  1
  H  H567  1  0.84000573  0.95590638  0.75574520  1
