# generated using pymatgen
data_ZnH6C7O4
_symmetry_space_group_name_H-M   'P 1'
_cell_length_a   13.12834842
_cell_length_b   14.58832743
_cell_length_c   16.63727589
_cell_angle_alpha   90.00000000
_cell_angle_beta   90.00000000
_cell_angle_gamma   90.00000000
_symmetry_Int_Tables_number   1
_chemical_formula_structural   ZnH6C7O4
_chemical_formula_sum   'Zn16 H96 C112 O64'
_cell_volume   3186.38181437
_cell_formula_units_Z   16
loop_
 _symmetry_equiv_pos_site_id
 _symmetry_equiv_pos_as_xyz
  1  'x, y, z'
loop_
 _atom_site_type_symbol
 _atom_site_label
 _atom_site_symmetry_multiplicity
 _atom_site_fract_x
 _atom_site_fract_y
 _atom_site_fract_z
 _atom_site_occupancy
  C  C0  1  0.25141803  0.41168031  0.08960190  1
  H  H1  1  0.06148813  0.25158106  0.23905553  1
  C  C2  1  0.35487274  0.41321361  0.13878921  1
  C  C3  1  0.39733041  0.32183120  0.11308226  1
  H  H4  1  0.09449891  0.02864186  0.10039519  1
  O  O5  1  0.25704180  0.43012300  0.01540745  1
  C  C6  1  0.42939476  0.49278800  0.10495078  1
  H  H7  1  0.34271000  0.26715433  0.11847683  1
  C  C8  1  0.33978166  0.41483708  0.23489981  1
  H  H9  1  0.41140335  0.32389808  0.04734593  1
  C  C10  1  0.49402653  0.30107648  0.15662786  1
  Zn  Zn11  1  0.06248656  0.43714973  0.00893500  1
  O  O12  1  0.17214609  0.38289020  0.11582146  1
  H  H13  1  0.08151519  0.48360233  0.22535278  1
  H  H14  1  0.43501921  0.49185656  0.03532565  1
  H  H15  1  0.30173363  0.48212555  0.24999786  1
  H  H16  1  0.07994404  0.39493407  0.45539058  1
  C  C17  1  0.43276742  0.41655389  0.36385365  1
  C  C18  1  0.07385205  0.39839617  0.38751503  1
  O  O19  1  0.11604339  0.14999358  0.34697889  1
  O  O20  1  0.38728111  0.07868402  0.39860182  1
  H  H21  1  0.15241332  0.41349078  0.35847926  1
  O  O22  1  0.44946188  0.34475652  0.40382496  1
  O  O23  1  0.15079075  0.23222987  0.45022637  1
  C  C24  1  0.09733709  0.22272564  0.38710265  1
  O  O25  1  0.42205975  0.49396495  0.39428873  1
  C  C26  1  0.47366591  0.06010807  0.42052451  1
  C  C27  1  0.44277124  0.40756963  0.27512311  1
  Zn  Zn28  1  0.21806316  0.07153903  0.43097363  1
  C  C29  1  0.03216983  0.30050880  0.35679991  1
  H  H30  1  0.42264279  0.26225806  0.27324065  1
  C  C31  1  0.01916974  0.30054285  0.27348208  1
  H  H32  1  0.09527107  0.02851807  0.25997295  1
  C  C33  1  0.48000857  0.31091028  0.25199097  1
  C  C34  1  0.00700417  0.46939492  0.26137832  1
  C  C35  1  0.01238442  0.47754225  0.35417832  1
  H  H36  1  0.29048466  0.35910670  0.25271062  1
  O  O37  1  0.18183645  0.37763519  0.56846595  1
  C  C38  1  0.41389133  0.20414512  0.62089815  1
  C  C39  1  0.35183603  0.11752886  0.65136862  1
  H  H40  1  0.42320152  0.20457695  0.55442385  1
  C  C41  1  0.25314161  0.11382199  0.60867808  1
  O  O42  1  0.19697032  0.17361389  0.63680062  1
  H  H43  1  0.08493329  0.08308446  0.68788913  1
  H  H44  1  0.37211264  0.26745287  0.63794930  1
  H  H45  1  0.41150808  0.01860836  0.56812061  1
  Zn  Zn46  1  0.09206583  0.26065039  0.57500058  1
  O  O47  1  0.22779958  0.05861736  0.55261997  1
  H  H48  1  0.03171874  0.38048196  0.66621748  1
  H  H49  1  0.05167630  0.26455186  0.72176352  1
  C  C50  1  0.18152094  0.45958223  0.59183436  1
  C  C51  1  0.40739573  0.02830908  0.63386754  1
  C  C52  1  0.00435160  0.45067223  0.64914529  1
  C  C53  1  0.01548016  0.06272347  0.71736863  1
  C  C54  1  0.33709365  0.12984814  0.74021711  1
  H  H55  1  0.17589879  0.45361532  0.74786648  1
  O  O56  1  0.32577096  0.21658305  0.92225682  1
  H  H57  1  0.14534904  0.14619975  0.81206796  1
  C  C58  1  0.41594673  0.14584766  0.88173295  1
  C  C59  1  0.48310411  0.45374770  0.86388998  1
  O  O60  1  0.14597691  0.31255238  0.83590719  1
  H  H61  1  0.09973610  0.11230489  0.90771862  1
  Zn  Zn62  1  0.28561605  0.36251983  0.89803180  1
  O  O63  1  0.39473532  0.43666666  0.83642193  1
  C  C64  1  0.07482811  0.12786884  0.84685809  1
  C  C65  1  0.03208583  0.04117831  0.80446043  1
  C  C66  1  0.48876213  0.03981761  0.77607738  1
  C  C67  1  0.44415079  0.14151113  0.79011278  1
  H  H68  1  0.30160643  0.17188624  0.96253140  1
  C  C69  1  0.06506475  0.29644865  0.87044775  1
  O  O70  1  0.42616433  0.08069082  0.92498051  1
  H  H71  1  0.29200779  0.06902744  0.76193222  1
  H  H72  1  0.47147644  0.29354891  0.76731016  1
  O  O73  1  0.03715416  0.32866905  0.93514873  1
  C  C74  1  0.00515190  0.21754294  0.83911531  1
  H  H75  1  0.29017177  0.18833977  0.75462118  1
  H  H76  1  0.39910869  0.56200118  0.12507810  1
  C  C77  1  0.16873313  0.87461034  0.02982886  1
  H  H78  1  0.21790951  0.81476209  0.18324179  1
  C  C79  1  0.02701695  0.79853022  0.10491444  1
  O  O80  1  0.22607232  0.93912362  0.01554846  1
  H  H81  1  0.06922329  0.72778458  0.10693854  1
  C  C82  1  0.10262603  0.88018225  0.10385199  1
  H  H83  1  0.22298801  0.93683486  0.17677853  1
  C  C84  1  0.04017117  0.96634477  0.10110211  1
  C  C85  1  0.16846513  0.87732160  0.18228993  1
  O  O86  1  0.13607813  0.81691473  0.38318077  1
  H  H87  1  0.43795386  0.88573813  0.47706462  1
  H  H88  1  0.38670364  0.91101357  0.36992073  1
  O  O89  1  0.20521191  0.94802152  0.35270750  1
  C  C90  1  0.10073414  0.87700168  0.25791553  1
  C  C91  1  0.45672695  0.89337331  0.40817966  1
  C  C92  1  0.05822254  0.56812974  0.37773544  1
  O  O93  1  0.15135550  0.58206019  0.37185171  1
  C  C94  1  0.15686063  0.87912404  0.33507106  1
  Zn  Zn95  1  0.28958410  0.56038132  0.44716498  1
  C  C96  1  0.42138863  0.72427501  0.37660572  1
  O  O97  1  0.38552424  0.69270465  0.31743037  1
  O  O98  1  0.33545578  0.70308437  0.45227464  1
  H  H99  1  0.47888988  0.55151061  0.25653902  1
  H  H100  1  0.27533833  0.70484618  0.41396624  1
  C  C101  1  0.04036034  0.96899460  0.25818455  1
  H  H102  1  0.05987804  0.72701373  0.25612333  1
  Zn  Zn103  1  0.00190156  0.76583706  0.43755941  1
  O  O104  1  0.00140766  0.62724320  0.40871958  1
  H  H105  1  0.44348803  0.82705309  0.25178220  1
  H  H106  1  0.46870638  0.99659354  0.26884950  1
  C  C107  1  0.02367170  0.79891575  0.25535300  1
  H  H108  1  0.36516454  0.96758273  0.65816428  1
  C  C109  1  0.10179684  0.50333169  0.64244636  1
  H  H110  1  0.14606857  0.64937925  0.59787907  1
  O  O111  1  0.24560593  0.51496105  0.56421007  1
  H  H112  1  0.04361207  0.58981503  0.54522715  1
  C  C113  1  0.07627182  0.60076284  0.60721815  1
  C  C114  1  0.14879606  0.52006678  0.72561424  1
  H  H115  1  0.46508568  0.69036781  0.71064259  1
  H  H116  1  0.21601949  0.56464454  0.71679622  1
  O  O117  1  0.01663483  0.76968446  0.56500866  1
  H  H118  1  0.49684876  0.52769732  0.71404391  1
  C  C119  1  0.04916771  0.66298868  0.74363188  1
  H  H120  1  0.12521853  0.69995044  0.73530556  1
  O  O121  1  0.42969980  0.85691323  0.89814000  1
  C  C122  1  0.06706030  0.56512172  0.78441342  1
  O  O123  1  0.07778167  0.55155598  0.92997889  1
  H  H124  1  0.43299144  0.63216487  0.93490876  1
  C  C125  1  0.42518215  0.79824569  0.84439086  1
  C  C126  1  0.45162633  0.63040276  0.86793827  1
  Zn  Zn127  1  0.32095034  0.96307533  0.91117009  1
  O  O128  1  0.19239880  0.63247727  0.86563581  1
  H  H129  1  0.37931260  0.61673513  0.83780200  1
  Zn  Zn130  1  0.19386481  0.77486829  0.85866274  1
  O  O131  1  0.08873847  0.88470561  0.82101781  1
  C  C132  1  0.11354064  0.58226312  0.86458900  1
  C  C133  1  0.11027878  0.96783660  0.81692563  1
  O  O134  1  0.34643481  0.78750097  0.80509700  1
  H  H135  1  0.43986381  0.98504796  0.79912716  1
  H  H136  1  0.00272913  0.70789003  0.78700059  1
  O  O137  1  0.19926683  0.99104725  0.83063563  1
  O  O138  1  0.16941798  0.80549471  0.98379358  1
  O  O139  1  0.64005546  0.20423868  0.10274407  1
  C  C140  1  0.96298720  0.37245481  0.24094561  1
  C  C141  1  0.94712004  0.37087712  0.14898183  1
  C  C142  1  0.54929771  0.20618713  0.13132418  1
  H  H143  1  0.58463118  0.38163925  0.06532856  1
  H  H144  1  0.87961036  0.16972192  0.10716459  1
  O  O145  1  0.93928827  0.43423847  0.09447958  1
  C  C146  1  0.56798977  0.38163852  0.12838633  1
  O  O147  1  0.88755438  0.10472870  0.09669604  1
  H  H148  1  0.64590808  0.37086824  0.15614021  1
  Zn  Zn149  1  0.72565099  0.08035789  0.08097320  1
  O  O150  1  0.92570731  0.29303866  0.13420663  1
  C  C151  1  0.91410145  0.06378710  0.18338348  1
  C  C152  1  0.52623967  0.47562020  0.14963153  1
  O  O153  1  0.90207113  0.11550835  0.23695292  1
  O  O154  1  0.50190417  0.13470256  0.13681991  1
  C  C155  1  0.51283816  0.48428211  0.24397725  1
  H  H156  1  0.55261494  0.29836720  0.28280390  1
  Zn  Zn157  1  0.56338493  0.25194789  0.42582263  1
  C  C158  1  0.92415868  0.30051977  0.39833335  1
  C  C159  1  0.85115086  0.37732256  0.36702168  1
  C  C160  1  0.74914014  0.37043162  0.39856672  1
  H  H161  1  0.58987592  0.48153333  0.27842695  1
  O  O162  1  0.70861057  0.29463805  0.38115295  1
  H  H163  1  0.89587807  0.23687570  0.37649006  1
  C  C164  1  0.84760013  0.37456569  0.27522870  1
  O  O165  1  0.70613650  0.43101610  0.43903731  1
  H  H166  1  0.92553912  0.29703732  0.46497971  1
  C  C167  1  0.90212334  0.47460838  0.38425608  1
  H  H168  1  0.68471758  0.02350942  0.43035119  1
  H  H169  1  0.58520365  0.04780631  0.28496704  1
  H  H170  1  0.89828225  0.48575966  0.45080229  1
  H  H171  1  0.81212851  0.31281597  0.25083549  1
  O  O172  1  0.52458655  0.12081639  0.45816812  1
  H  H173  1  0.79734604  0.43186797  0.25443863  1
  C  C174  1  0.57421110  0.11839201  0.65167239  1
  H  H175  1  0.75413573  0.37438947  0.63877115  1
  H  H176  1  0.59057889  0.10638126  0.58647992  1
  C  C177  1  0.51893091  0.20795860  0.66379240  1
  O  O178  1  0.93832304  0.24364433  0.58853662  1
  C  C179  1  0.93607584  0.14654935  0.71258131  1
  H  H180  1  0.96955579  0.44027753  0.58744543  1
  Zn  Zn181  1  0.65876051  0.45668439  0.55811847  1
  C  C182  1  0.90246501  0.17006394  0.62251530  1
  H  H183  1  0.64986283  0.12682338  0.67843417  1
  C  C184  1  0.57971147  0.28554336  0.61957322  1
  O  O185  1  0.57627072  0.36357347  0.64732525  1
  O  O186  1  0.84196496  0.12223789  0.59111835  1
  O  O187  1  0.79453259  0.42765526  0.62381010  1
  C  C188  1  0.82959441  0.45215950  0.71459393  1
  O  O189  1  0.62732804  0.26771460  0.55590226  1
  C  C190  1  0.50883446  0.03111806  0.68423414  1
  H  H191  1  0.62436573  0.49148104  0.74623279  1
  H  H192  1  0.80209077  0.06746835  0.72295721  1
  H  H193  1  0.92368193  0.29560248  0.74785535  1
  C  C194  1  0.92718649  0.49832453  0.71404013  1
  H  H195  1  0.79015214  0.18197094  0.74546075  1
  C  C196  1  0.84172218  0.12165911  0.75805271  1
  Zn  Zn197  1  0.56645383  0.20590770  0.86293107  1
  C  C198  1  0.85583917  0.10211934  0.84537288  1
  O  O199  1  0.71381176  0.11644928  0.94854234  1
  C  C200  1  0.90716994  0.19224146  0.88426128  1
  O  O201  1  0.78761839  0.42918087  0.77097934  1
  C  C202  1  0.75328468  0.06451010  0.89469151  1
  H  H203  1  0.84705388  0.24648491  0.88370339  1
  H  H204  1  0.92228474  0.17890725  0.94593232  1
  H  H205  1  0.94015952  0.48541071  0.84149972  1
  H  H206  1  0.56743069  0.03513681  0.80599701  1
  C  C207  1  0.93148365  0.01942685  0.84702044  1
  C  C208  1  0.98241480  0.23979375  0.75312853  1
  O  O209  1  0.52184090  0.39882650  0.90993287  1
  C  C210  1  0.50015904  0.22393957  0.75080001  1
  H  H211  1  0.83490566  0.89693826  0.22444583  1
  C  C212  1  0.61378818  0.91836337  0.17957246  1
  O  O213  1  0.67334385  0.98316156  0.16717843  1
  O  O214  1  0.59254094  0.86024479  0.12896136  1
  C  C215  1  0.95163009  0.80256164  0.17802085  1
  C  C216  1  0.89303042  0.88894324  0.17628773  1
  O  O217  1  0.92625539  0.64953349  0.15815800  1
  H  H218  1  0.84096680  0.88894596  0.12014553  1
  O  O219  1  0.79413198  0.72843810  0.19145239  1
  C  C220  1  0.88387574  0.72212371  0.18065540  1
  Zn  Zn221  1  0.84614623  0.55456330  0.08527920  1
  C  C222  1  0.60986828  0.54000628  0.12595847  1
  O  O223  1  0.58334685  0.61508132  0.09689348  1
  Zn  Zn224  1  0.67110392  0.74252571  0.09230609  1
  O  O225  1  0.69934831  0.52126218  0.14061421  1
  C  C226  1  0.97225389  0.97285285  0.18229839  1
  H  H227  1  0.55203347  0.75737815  0.24475058  1
  H  H228  1  0.95314992  0.52819135  0.24181550  1
  H  H229  1  0.98072516  0.97569336  0.05412529  1
  H  H230  1  0.98932540  0.79788208  0.04352920  1
  C  C231  1  0.54298973  0.98406227  0.30197705  1
  C  C232  1  0.78750453  0.86382400  0.44170213  1
  H  H233  1  0.96639540  0.80128001  0.30998713  1
  C  C234  1  0.68567703  0.87135677  0.40284547  1
  C  C235  1  0.60998380  0.79480374  0.41930076  1
  C  C236  1  0.59346508  0.89648346  0.26512405  1
  H  H237  1  0.73854769  0.82727311  0.28273536  1
  Zn  Zn238  1  0.56789279  0.66101731  0.39452570  1
  H  H239  1  0.85968863  0.53079350  0.35222234  1
  C  C240  1  0.69731707  0.88574530  0.31067989  1
  O  O241  1  0.86647258  0.84571539  0.40543306  1
  H  H242  1  0.59637997  0.78304265  0.48625361  1
  C  C243  1  0.62966398  0.96112471  0.43726296  1
  H  H244  1  0.74458024  0.95080942  0.29974863  1
  H  H245  1  0.99331188  0.97548507  0.31848127  1
  C  C246  1  0.52792683  0.97281309  0.39550552  1
  C  C247  1  0.52211996  0.81736545  0.27641470  1
  C  C248  1  0.50788471  0.79941671  0.37416081  1
  H  H249  1  0.55752225  0.77505663  0.72464368  1
  C  C250  1  0.90192753  0.59811319  0.67503456  1
  C  C251  1  0.64422123  0.64373000  0.64720314  1
  Zn  Zn252  1  0.75841204  0.84006062  0.64047275  1
  O  O253  1  0.71365218  0.68865810  0.61813665  1
  O  O254  1  0.54101990  0.88895412  0.61533575  1
  C  C255  1  0.61317823  0.63690776  0.73411348  1
  O  O256  1  0.90463465  0.79038377  0.66329658  1
  H  H257  1  0.85812025  0.57940120  0.61939045  1
  C  C258  1  0.97187401  0.74305715  0.62535903  1
  O  O259  1  0.66639674  0.93889186  0.68710453  1
  C  C260  1  0.57590160  0.94715543  0.66080689  1
  O  O261  1  0.59552202  0.58558440  0.60606016  1
  H  H262  1  0.85022663  0.63868581  0.71610455  1
  O  O263  1  0.79409143  0.88333469  0.51467770  1
  C  C264  1  0.53029556  0.70979433  0.74846132  1
  C  C265  1  0.99895761  0.65260234  0.66060847  1
  H  H266  1  0.98440220  0.99766744  0.69132860  1
  H  H267  1  0.61584098  0.95141983  0.50136490  1
  C  C268  1  0.59314305  0.73461416  0.88975508  1
  O  O269  1  0.82069422  0.60893771  0.96517869  1
  C  C270  1  0.70455104  0.64753643  0.79073980  1
  H  H271  1  0.89206740  0.95820496  0.81800737  1
  H  H272  1  0.74247880  0.71082972  0.77312626  1
  C  C273  1  0.62504986  0.56019495  0.90413290  1
  H  H274  1  0.60219621  0.55644236  0.96561461  1
  H  H275  1  0.57299608  0.75196539  0.95383769  1
  C  C276  1  0.76240681  0.67394432  0.94565572  1
  C  C277  1  0.67309181  0.65490008  0.88279662  1
  H  H278  1  0.63244677  0.79961848  0.87224268  1
  O  O279  1  0.76232968  0.74742475  0.98373037  1
  H  H280  1  0.75870698  0.58771661  0.78291210  1
  C  C281  1  0.97928918  0.50920811  0.78562108  1
  C  C282  1  0.53288969  0.55267328  0.84733307  1
  O  O283  1  0.72074561  0.99092008  0.87733979  1
  C  C284  1  0.50219514  0.72009548  0.84098994  1
  H  H285  1  0.93903087  0.99995431  0.91033416  1
  H  H286  1  0.68507209  0.50549300  0.89756022  1
  C  C287  1  0.56261685  0.54483062  0.75560395  1
