# generated using pymatgen
data_Zn3H32C54O13
_symmetry_space_group_name_H-M   'P 1'
_cell_length_a   17.20595979
_cell_length_b   16.26160724
_cell_length_c   17.34990740
_cell_angle_alpha   90.00000000
_cell_angle_beta   90.00000000
_cell_angle_gamma   90.00000000
_symmetry_Int_Tables_number   1
_chemical_formula_structural   Zn3H32C54O13
_chemical_formula_sum   'Zn12 H128 C216 O52'
_cell_volume   4854.44441219
_cell_formula_units_Z   4
loop_
 _symmetry_equiv_pos_site_id
 _symmetry_equiv_pos_as_xyz
  1  'x, y, z'
loop_
 _atom_site_type_symbol
 _atom_site_label
 _atom_site_symmetry_multiplicity
 _atom_site_fract_x
 _atom_site_fract_y
 _atom_site_fract_z
 _atom_site_occupancy
  O  O0  1  0.16892234  0.25562008  0.10626294  1
  C  C1  1  0.28739596  0.03592048  0.07470828  1
  Zn  Zn2  1  0.26928454  0.33124487  0.10967910  1
  C  C3  1  0.20148784  0.12292524  0.14718444  1
  C  C4  1  0.24953663  0.10942862  0.07881465  1
  C  C5  1  0.33562246  0.43179447  0.09968259  1
  O  O6  1  0.16257053  0.42196752  0.20615766  1
  H  H7  1  0.31506498  0.01725594  0.02039540  1
  C  C8  1  0.38112729  0.37650708  0.14018298  1
  H  H9  1  0.25650117  0.15255149  0.03082443  1
  H  H10  1  0.16413939  0.04627318  0.00295623  1
  C  C11  1  0.15393065  0.20072527  0.15563467  1
  H  H12  1  0.46161202  0.19762498  0.07892359  1
  C  C13  1  0.19781555  0.06482195  0.20778114  1
  O  O14  1  0.10842094  0.21203377  0.20797477  1
  C  C15  1  0.45638195  0.39416255  0.17071214  1
  H  H16  1  0.48431837  0.34647696  0.20355183  1
  C  C17  1  0.48228707  0.47418362  0.15540238  1
  H  H18  1  0.03830049  0.26427309  0.05383852  1
  Zn  Zn19  1  0.07523940  0.34988097  0.24697872  1
  H  H20  1  0.45266098  0.33339402  0.02527683  1
  C  C21  1  0.34287509  0.10895925  0.37183867  1
  C  C22  1  0.31384775  0.19006595  0.38887252  1
  C  C23  1  0.43085544  0.25531160  0.33980950  1
  C  C24  1  0.16223808  0.17425886  0.41561113  1
  H  H25  1  0.46739401  0.30935614  0.33058857  1
  C  C26  1  0.23857414  0.20570458  0.43294766  1
  C  C27  1  0.24603844  0.26513809  0.49009165  1
  H  H28  1  0.02356587  0.17297484  0.31823914  1
  H  H29  1  0.10715268  0.41402995  0.36489090  1
  O  O30  1  0.42098692  0.44821313  0.44420343  1
  H  H31  1  0.15234180  0.11771410  0.38059734  1
  C  C32  1  0.35672172  0.26246738  0.37200028  1
  C  C33  1  0.04976110  0.40480876  0.39586123  1
  H  H34  1  0.33475131  0.32188630  0.39175457  1
  H  H35  1  0.30566701  0.05462299  0.38710605  1
  C  C36  1  0.45522550  0.17357494  0.32444667  1
  C  C37  1  0.01575793  0.18139151  0.44447421  1
  C  C38  1  0.41580739  0.10090806  0.33857564  1
  O  O39  1  0.21306580  0.43335522  0.32173967  1
  C  C40  1  0.09870409  0.21300173  0.45275153  1
  C  C41  1  0.04656244  0.44207656  0.46935296  1
  H  H42  1  0.09217415  0.48574395  0.48614614  1
  H  H43  1  0.44407706  0.04016321  0.32691080  1
  H  H44  1  0.23342933  0.45983794  0.47457413  1
  C  C45  1  0.44606866  0.45774608  0.38880384  1
  H  H46  1  0.48939508  0.13248014  0.48792443  1
  C  C47  1  0.20884329  0.45740601  0.25343168  1
  H  H48  1  0.15960019  0.07479504  0.25675836  1
  C  C49  1  0.15774004  0.00631282  0.49128386  1
  C  C50  1  0.24525051  0.44762331  0.53445490  1
  H  H51  1  0.38122445  0.15959276  0.62153910  1
  C  C52  1  0.44076236  0.05203333  0.57752275  1
  C  C53  1  0.18258831  0.30620614  0.52698636  1
  C  C54  1  0.20799422  0.38185443  0.57434778  1
  H  H55  1  0.15333660  0.05028395  0.54012873  1
  C  C56  1  0.22255514  0.37091965  0.65493685  1
  C  C57  1  0.27016850  0.42383098  0.69770710  1
  H  H58  1  0.25197346  0.11812940  0.55333567  1
  H  H59  1  0.40075181  0.31566719  0.72506456  1
  C  C60  1  0.30610952  0.07925959  0.55285161  1
  H  H61  1  0.19895123  0.32238436  0.69203521  1
  H  H62  1  0.05293954  0.30632734  0.53164585  1
  C  C63  1  0.37549496  0.10498802  0.58576033  1
  C  C64  1  0.10666479  0.27769438  0.50804230  1
  C  C65  1  0.30911686  0.48590410  0.65578004  1
  H  H66  1  0.30610885  0.28681537  0.50559684  1
  H  H67  1  0.31118882  0.19695226  0.74857065  1
  H  H68  1  0.05747500  0.00683397  0.61258629  1
  C  C69  1  0.30166398  0.00303609  0.51154743  1
  C  C70  1  0.44112551  0.14810501  0.88968565  1
  C  C71  1  0.30107403  0.36356155  0.90892049  1
  H  H72  1  0.19208520  0.04763591  0.91542743  1
  C  C73  1  0.37703282  0.14066339  0.84209576  1
  C  C74  1  0.48822540  0.21801183  0.87857126  1
  C  C75  1  0.36482872  0.19942186  0.78272721  1
  C  C76  1  0.32189297  0.06747164  0.84410343  1
  O  O77  1  0.23868537  0.34532538  0.88595379  1
  H  H78  1  0.27504192  0.41736552  0.75922327  1
  H  H79  1  0.45464759  0.10531254  0.93754214  1
  O  O80  1  0.26721074  0.06138159  0.79723007  1
  C  C81  1  0.41202246  0.26789874  0.76867234  1
  O  O82  1  0.36283230  0.37697486  0.93327566  1
  O  O83  1  0.33386706  0.00595491  0.88671602  1
  C  C84  1  0.48003526  0.27288209  0.81520723  1
  H  H85  1  0.45822930  0.44571444  0.95941229  1
  H  H86  1  0.49258707  0.44563122  0.78865925  1
  O  O87  1  0.14621558  0.03151812  0.95080010  1
  H  H88  1  0.49027079  0.06287027  0.76771750  1
  O  O89  1  0.49458047  0.00682749  0.78406444  1
  H  H90  1  0.44710639  0.00047189  0.81672857  1
  O  O91  1  0.03789957  0.39145393  0.99962797  1
  C  C92  1  0.10152017  0.74834183  0.17320489  1
  H  H93  1  0.17717915  0.53908815  0.12893359  1
  C  C94  1  0.32422401  0.66961367  0.18856976  1
  H  H95  1  0.43558082  0.95979920  0.07983444  1
  C  C96  1  0.25578208  0.53184369  0.22980539  1
  C  C97  1  0.09420532  0.83349648  0.16440356  1
  C  C98  1  0.43122098  0.75111517  0.12551132  1
  C  C99  1  0.05992024  0.69760810  0.11141990  1
  H  H100  1  0.06172078  0.85890520  0.11626884  1
  C  C101  1  0.31031574  0.82410203  0.16221997  1
  C  C102  1  0.35734158  0.75309531  0.16186939  1
  H  H103  1  0.33136953  0.55745923  0.04893582  1
  C  C104  1  0.33836800  0.90069147  0.13191822  1
  H  H105  1  0.25842109  0.66279292  0.07913750  1
  C  C106  1  0.28877755  0.97756878  0.13793880  1
  H  H107  1  0.25124348  0.81933360  0.18867048  1
  O  O108  1  0.05590101  0.62311385  0.12205272  1
  C  C109  1  0.22630877  0.56501533  0.16122761  1
  C  C110  1  0.26637614  0.63428312  0.13742650  1
  H  H111  1  0.11395639  0.95278089  0.21838648  1
  C  C112  1  0.41224669  0.90205209  0.10188514  1
  C  C113  1  0.44016290  0.53090009  0.10941988  1
  C  C114  1  0.36618290  0.51177056  0.08318989  1
  C  C115  1  0.13485708  0.70829668  0.23635458  1
  H  H116  1  0.46591175  0.69577969  0.12231127  1
  H  H117  1  0.14182647  0.64104627  0.23893804  1
  C  C118  1  0.12278392  0.88649505  0.22135764  1
  H  H119  1  0.47167271  0.58844696  0.08815101  1
  C  C120  1  0.45642495  0.82802442  0.09746325  1
  C  C121  1  0.24091598  0.99260893  0.20543448  1
  O  O122  1  0.02565558  0.73754457  0.05739156  1
  O  O123  1  0.02578947  0.91747446  0.01171777  1
  H  H124  1  0.33053811  0.52658760  0.33223302  1
  C  C125  1  0.23476810  0.92566765  0.39826889  1
  H  H126  1  0.03428434  0.76015831  0.34833418  1
  C  C127  1  0.22732742  0.67663319  0.49282380  1
  C  C128  1  0.09527162  0.94009549  0.38389342  1
  C  C129  1  0.15391954  0.60378454  0.38755022  1
  C  C130  1  0.22525411  0.63351364  0.42129725  1
  H  H131  1  0.28813490  0.89774094  0.37611921  1
  H  H132  1  0.28197847  0.62270782  0.39230779  1
  H  H133  1  0.04202593  0.92204067  0.35294644  1
  H  H134  1  0.39370641  0.66564326  0.29401827  1
  C  C135  1  0.15738055  0.84850344  0.28767453  1
  C  C136  1  0.16705174  0.90465254  0.35788522  1
  H  H137  1  0.18827674  0.74348934  0.35296198  1
  C  C138  1  0.15993144  0.75955617  0.29579670  1
  H  H139  1  0.14993729  0.56172935  0.33510662  1
  C  C140  1  0.08616375  0.63037080  0.42748226  1
  O  O141  1  0.36042208  0.68824885  0.46735212  1
  C  C142  1  0.31504150  0.56052699  0.27914585  1
  C  C143  1  0.08951110  0.97619714  0.45774191  1
  C  C144  1  0.23109689  0.97866593  0.46324728  1
  H  H145  1  0.36908569  0.89611044  0.46990680  1
  C  C146  1  0.00470427  0.63299411  0.38765941  1
  C  C147  1  0.35132262  0.63461728  0.25811047  1
  H  H148  1  0.23770118  0.94701554  0.25097727  1
  C  C149  1  0.01029799  0.98234888  0.49740711  1
  C  C150  1  0.43703967  0.97794896  0.53498585  1
  C  C151  1  0.20535531  0.74480711  0.73721678  1
  H  H152  1  0.32104425  0.55472075  0.54408219  1
  C  C153  1  0.21209702  0.65815214  0.72470156  1
  H  H154  1  0.16738802  0.72923041  0.58612002  1
  C  C155  1  0.36210934  0.53887825  0.70151248  1
  Zn  Zn156  1  0.41381974  0.71833802  0.65299245  1
  O  O157  1  0.40753526  0.58744860  0.66500495  1
  C  C158  1  0.07651620  0.65997086  0.69228077  1
  C  C159  1  0.02461035  0.53821042  0.61657371  1
  H  H160  1  0.08433628  0.51334032  0.61577787  1
  H  H161  1  0.01275532  0.77624312  0.70130915  1
  H  H162  1  0.13339069  0.85716427  0.73137981  1
  H  H163  1  0.48848238  0.93824881  0.53102258  1
  C  C164  1  0.00795887  0.99479106  0.57873421  1
  O  O165  1  0.31903542  0.74806010  0.57274533  1
  H  H166  1  0.41458058  0.82982743  0.73701463  1
  C  C167  1  0.14690465  0.61792604  0.69910726  1
  H  H168  1  0.15049104  0.55253038  0.68366067  1
  C  C169  1  0.13558000  0.78706896  0.72722148  1
  O  O170  1  0.45691577  0.82309494  0.70191351  1
  C  C171  1  0.06847361  0.74481351  0.70635671  1
  C  C172  1  0.15833498  0.69014975  0.53331002  1
  H  H173  1  0.26855320  0.62736403  0.73311633  1
  C  C174  1  0.00770343  0.61160603  0.65690130  1
  H  H175  1  0.03303681  0.68017709  0.53699168  1
  C  C176  1  0.08602185  0.66804688  0.50245651  1
  C  C177  1  0.29225434  0.50142310  0.57629666  1
  C  C178  1  0.36907870  0.95438313  0.50189590  1
  C  C179  1  0.30920761  0.70332966  0.51291693  1
  C  C180  1  0.30065814  0.61800591  0.93325494  1
  O  O181  1  0.17348930  0.72623002  0.95298001  1
  C  C182  1  0.36724931  0.57097521  0.92639478  1
  Zn  Zn183  1  0.06155822  0.80032099  0.95870291  1
  C  C184  1  0.24052559  0.75737463  0.95859628  1
  O  O185  1  0.27707974  0.86406199  0.76971213  1
  C  C186  1  0.38471894  0.73982525  0.96362882  1
  O  O187  1  0.25321114  0.83350099  0.96082199  1
  C  C188  1  0.31074118  0.70203078  0.95355894  1
  O  O189  1  0.33812992  0.74567613  0.75861909  1
  O  O190  1  0.12346164  0.87268039  0.87293998  1
  C  C191  1  0.44131551  0.60604363  0.94629846  1
  Zn  Zn192  1  0.22844940  0.92754626  0.88084919  1
  H  H193  1  0.24546500  0.58955371  0.91445245  1
  H  H194  1  0.14410593  0.83493615  0.83898504  1
  O  O195  1  0.36780366  0.52893002  0.77259893  1
  H  H196  1  0.36695581  0.50524601  0.90428644  1
  H  H197  1  0.06062400  0.93358926  0.97011065  1
  C  C198  1  0.27722365  0.79151636  0.75532677  1
  H  H199  1  0.48905694  0.87717947  0.95055981  1
  C  C200  1  0.45123678  0.69067874  0.96776683  1
  H  H201  1  0.38475939  0.80236725  0.98085045  1
  H  H202  1  0.71465106  0.19377166  0.05562238  1
  C  C203  1  0.58762163  0.19183547  0.07312369  1
  H  H204  1  0.86374816  0.27113647  0.09228125  1
  C  C205  1  0.65846737  0.22372807  0.04487504  1
  C  C206  1  0.90890696  0.39299871  0.05626450  1
  O  O207  1  0.65034074  0.07952000  0.13859186  1
  C  C208  1  0.77241117  0.45576125  0.11898548  1
  H  H209  1  0.61623252  0.41530224  0.10720404  1
  C  C210  1  0.70121057  0.49327022  0.16038186  1
  O  O211  1  0.88094864  0.04755945  0.10823465  1
  C  C212  1  0.58619353  0.10643512  0.10758660  1
  C  C213  1  0.78699025  0.37207354  0.12163250  1
  C  C214  1  0.90072597  0.48041598  0.06506095  1
  O  O215  1  0.81763221  0.07644310  0.21118676  1
  C  C216  1  0.85602783  0.02732863  0.17442745  1
  O  O217  1  0.52766276  0.06344086  0.10527239  1
  H  H218  1  0.74733128  0.33001294  0.15373242  1
  C  C219  1  0.85436097  0.33894284  0.08707010  1
  C  C220  1  0.51705702  0.23054631  0.06348675  1
  C  C221  1  0.62590167  0.46651469  0.14492414  1
  O  O222  1  0.98622690  0.26420221  0.03200450  1
  C  C223  1  0.51280793  0.30748465  0.02772055  1
  C  C224  1  0.98316447  0.35675708  0.02397458  1
  C  C225  1  0.58208809  0.34483049  0.00080752  1
  C  C226  1  0.65285593  0.30048370  0.00869625  1
  O  O227  1  0.91760897  0.30975503  0.24055249  1
  C  C228  1  0.98407293  0.17412949  0.36803705  1
  O  O229  1  0.57181885  0.09617178  0.29362938  1
  O  O230  1  0.73055750  0.15084985  0.47537673  1
  C  C231  1  0.90173460  0.17033550  0.35943615  1
  C  C232  1  0.76983941  0.15956053  0.41633890  1
  O  O233  1  0.56998812  0.22779459  0.26657442  1
  O  O234  1  0.74093752  0.17229316  0.35192987  1
  H  H235  1  0.83337301  0.42950081  0.27404133  1
  C  C236  1  0.72435277  0.40497781  0.33111166  1
  H  H237  1  0.52450956  0.10327990  0.41894338  1
  C  C238  1  0.67257064  0.41972140  0.39188518  1
  C  C239  1  0.79582044  0.44589853  0.32081970  1
  H  H240  1  0.85697393  0.31594271  0.38940770  1
  C  C241  1  0.85570943  0.16762805  0.42676492  1
  H  H242  1  0.87126485  0.15463011  0.30875969  1
  C  C243  1  0.90841858  0.34824598  0.41226112  1
  C  C244  1  0.53668850  0.16424939  0.29152669  1
  C  C245  1  0.96547833  0.33016965  0.28494702  1
  Zn  Zn246  1  0.63792108  0.31812384  0.32330022  1
  C  C247  1  0.68179985  0.49096901  0.43903164  1
  C  C248  1  0.98152452  0.36044926  0.36798704  1
  C  C249  1  0.90981364  0.38643291  0.48201814  1
  O  O250  1  0.54101778  0.12026639  0.46843435  1
  Zn  Zn251  1  0.69007174  0.07632161  0.25936159  1
  O  O252  1  0.57112049  0.02030404  0.61805489  1
  H  H253  1  0.85103080  0.17497787  0.55586710  1
  H  H254  1  0.73240458  0.21995961  0.72149558  1
  C  C255  1  0.96436729  0.18114183  0.50944338  1
  Zn  Zn256  1  0.64860050  0.04921700  0.51509301  1
  H  H257  1  0.85517326  0.38652162  0.51453575  1
  H  H258  1  0.98619580  0.18757665  0.56830611  1
  H  H259  1  0.80924350  0.08927429  0.74803303  1
  C  C260  1  0.88580729  0.17350898  0.50235482  1
  C  C261  1  0.51376812  0.07611454  0.61796246  1
  O  O262  1  0.52402119  0.13840469  0.65267619  1
  C  C263  1  0.97528393  0.43406633  0.51144234  1
  C  C264  1  0.55043026  0.41733199  0.78943134  1
  O  O265  1  0.95850385  0.06987003  0.91519772  1
  O  O266  1  0.91508092  0.01547159  0.81015662  1
  C  C267  1  0.69296009  0.33109713  0.81821930  1
  C  C268  1  0.55062283  0.33130302  0.80926335  1
  H  H269  1  0.74907553  0.45068962  0.80443379  1
  C  C270  1  0.91402642  0.07527021  0.85691648  1
  H  H271  1  0.54029112  0.22240424  0.91740046  1
  C  C272  1  0.86435784  0.15053697  0.84454192  1
  C  C273  1  0.81627167  0.28175560  0.89468063  1
  H  H274  1  0.91901405  0.22157663  0.93863310  1
  C  C275  1  0.76278066  0.27746708  0.83073659  1
  C  C276  1  0.87257450  0.21949843  0.89603406  1
  H  H277  1  0.81673855  0.33545845  0.93075488  1
  H  H278  1  0.61699172  0.22249197  0.84048968  1
  C  C279  1  0.61920497  0.29029923  0.82698519  1
  C  C280  1  0.62400670  0.45923597  0.78894889  1
  C  C281  1  0.81291220  0.14424682  0.78343722  1
  C  C282  1  0.69520139  0.41777880  0.80606337  1
  C  C283  1  0.65986045  0.47183416  0.95783287  1
  C  C284  1  0.58801263  0.43448755  0.97435891  1
  C  C285  1  0.51656404  0.47721046  0.95805066  1
  H  H286  1  0.70863104  0.32637962  0.98497612  1
  C  C287  1  0.77123892  0.21646901  0.77046653  1
  H  H288  1  0.71401499  0.43248477  0.95987359  1
  C  C289  1  0.60846931  0.79638994  0.08760011  1
  H  H290  1  0.74244021  0.78403448  0.06122081  1
  H  H291  1  0.93825392  0.75347539  0.16589889  1
  H  H292  1  0.81682790  0.57741150  0.07972285  1
  C  C293  1  0.70605091  0.56962817  0.20006598  1
  H  H294  1  0.91453528  0.89419382  0.10305565  1
  C  C295  1  0.89988215  0.88311459  0.16776358  1
  Zn  Zn296  1  0.61999681  0.92753796  0.07489032  1
  C  C297  1  0.56545250  0.57686960  0.22434293  1
  H  H298  1  0.76159974  0.60112747  0.19763382  1
  C  C299  1  0.68643161  0.81691377  0.04739235  1
  C  C300  1  0.82783735  0.51114514  0.08855456  1
  C  C301  1  0.87267455  0.94445937  0.21454836  1
  H  H302  1  0.72399130  0.74423075  0.18880258  1
  C  C303  1  0.91481560  0.80530664  0.19855720  1
  H  H304  1  0.94731072  0.52425442  0.04867926  1
  C  C305  1  0.53614242  0.83459014  0.06114749  1
  H  H306  1  0.60615498  0.73350703  0.11625235  1
  C  C307  1  0.64068390  0.61346455  0.23118291  1
  Zn  Zn308  1  0.92827028  0.98740377  0.00666062  1
  C  C309  1  0.69552474  0.75860527  0.24319738  1
  C  C310  1  0.56290894  0.50863499  0.17564745  1
  H  H311  1  0.74226562  0.88161831  0.23905589  1
  O  O312  1  0.82313206  0.90963189  0.00496320  1
  H  H313  1  0.76267193  0.59246765  0.46466654  1
  C  C314  1  0.75176803  0.53720600  0.42965154  1
  C  C315  1  0.87327877  0.57962498  0.36374551  1
  C  C316  1  0.91419844  0.71673392  0.31740635  1
  C  C317  1  0.85627042  0.93684689  0.29349899  1
  C  C318  1  0.64558855  0.69549746  0.27507985  1
  C  C319  1  0.98943749  0.71165645  0.35292939  1
  C  C320  1  0.61542131  0.79618065  0.37622490  1
  H  H321  1  0.85957739  0.84601763  0.38928625  1
  C  C322  1  0.85419382  0.65507431  0.32669541  1
  H  H323  1  0.79395632  0.66820484  0.30935781  1
  H  H324  1  0.58736810  0.81776019  0.43121681  1
  C  C325  1  0.80474829  0.51714520  0.36981858  1
  H  H326  1  0.57101330  0.67056372  0.37763734  1
  C  C327  1  0.94786602  0.56876075  0.39334104  1
  H  H328  1  0.94918514  0.96300616  0.39050018  1
  C  C329  1  0.60661984  0.71478201  0.34601779  1
  O  O330  1  0.62893676  0.95162463  0.43540739  1
  C  C331  1  0.86698104  0.85916117  0.32755401  1
  C  C332  1  0.66814004  0.93818661  0.37425020  1
  C  C333  1  0.89417818  0.79772930  0.27696300  1
  C  C334  1  0.66292908  0.85399146  0.33908993  1
  C  C335  1  0.70549661  0.83689512  0.27154470  1
  O  O336  1  0.71289279  0.99102486  0.34581687  1
  H  H337  1  0.96268085  0.50948479  0.42184484  1
  H  H338  1  0.81688937  0.95353047  0.45589497  1
  C  C339  1  0.94331156  0.97264046  0.45355467  1
  H  H340  1  0.63380629  0.50648993  0.47736717  1
  H  H341  1  0.83947370  0.98823649  0.32880296  1
  C  C342  1  0.86933367  0.96956916  0.48997759  1
  H  H343  1  0.51150823  0.59923150  0.25328932  1
  C  C344  1  0.86856307  0.97879688  0.56872981  1
  C  C345  1  0.89244877  0.54192670  0.56143016  1
  H  H346  1  0.60115076  0.59767918  0.61633739  1
  C  C347  1  0.71968515  0.76631959  0.57995414  1
  C  C348  1  0.57768720  0.75963889  0.57595643  1
  C  C349  1  0.65430778  0.62995143  0.60203110  1
  H  H350  1  0.71379408  0.83065624  0.57023876  1
  H  H351  1  0.73093466  0.52619437  0.61252373  1
  H  H352  1  0.93070914  0.99563084  0.67841109  1
  C  C353  1  0.93540091  0.64946148  0.65662141  1
  O  O354  1  0.73477050  0.96281534  0.56849347  1
  C  C355  1  0.93549763  0.99303554  0.61428291  1
  C  C356  1  0.65473412  0.71518011  0.58652770  1
  H  H357  1  0.92183637  0.70184024  0.69032496  1
  C  C358  1  0.78982341  0.72820412  0.59248235  1
  C  C359  1  0.72699690  0.59345463  0.60286357  1
  C  C360  1  0.79453160  0.64042460  0.59880927  1
  C  C361  1  0.87717264  0.61101244  0.60870160  1
  Zn  Zn362  1  0.54468246  0.90683584  0.68977710  1
  O  O363  1  0.57719744  0.83416583  0.57460674  1
  O  O364  1  0.51781328  0.71464995  0.58490378  1
  C  C365  1  0.79298812  0.97287973  0.61040510  1
  H  H366  1  0.84173598  0.77302800  0.59522436  1
  O  O367  1  0.74631968  0.82525123  0.74318738  1
  H  H368  1  0.84790437  0.51512368  0.51929439  1
  O  O369  1  0.79169984  0.98446868  0.68103624  1
  C  C370  1  0.96450637  0.50199091  0.57181542  1
  H  H371  1  0.77797208  0.68789338  0.74187813  1
  O  O372  1  0.62764778  0.85932152  0.76558064  1
  C  C373  1  0.73291002  0.68912340  0.91737597  1
  H  H374  1  0.59066911  0.66894965  0.91894721  1
  C  C375  1  0.86664390  0.69313956  0.88254961  1
  C  C376  1  0.88040381  0.61619412  0.91480884  1
  C  C377  1  0.70190444  0.58028496  0.76278868  1
  O  O378  1  0.77331155  0.95236085  0.89494234  1
  H  H379  1  0.78596409  0.80233149  0.87064800  1
  C  C380  1  0.92568240  0.74806424  0.84365593  1
  C  C381  1  0.67905033  0.80624559  0.75677238  1
  Zn  Zn382  1  0.81910727  0.91798084  0.78770209  1
  H  H383  1  0.50310404  0.58959150  0.79158313  1
  C  C384  1  0.79482449  0.73464033  0.88665090  1
  C  C385  1  0.66621183  0.55923310  0.94731989  1
  C  C386  1  0.59508640  0.60426654  0.93901799  1
  C  C387  1  0.74226369  0.60278965  0.93260915  1
  O  O388  1  0.91112170  0.81379120  0.80844900  1
  C  C389  1  0.76538689  0.91423265  0.95931709  1
  H  H390  1  0.62586848  0.92029230  0.89330891  1
  H  H391  1  0.67573441  0.71494787  0.92576620  1
  C  C392  1  0.61784353  0.90845606  0.95413260  1
  C  C393  1  0.81700117  0.57045174  0.93840948  1
  H  H394  1  0.94120576  0.59748661  0.91796511  1
  C  C395  1  0.62740188  0.55164699  0.77710203  1
  C  C396  1  0.56445876  0.61063543  0.78126012  1
  C  C397  1  0.57562984  0.69347975  0.76757349  1
  H  H398  1  0.52992258  0.74012245  0.76597302  1
  C  C399  1  0.52196780  0.56190100  0.94613928  1
  C  C400  1  0.71796162  0.66413313  0.75642718  1
  C  C401  1  0.69270151  0.88320107  0.99085577  1
  C  C402  1  0.65436854  0.71513416  0.76026800  1
  O  O403  1  0.99451966  0.73279915  0.85916153  1
  C  C404  1  0.54029222  0.87415782  0.98703311  1
  H  H405  1  0.50590193  0.71214588  0.99284445  1
  H  H406  1  0.83117352  0.50949680  0.95676655  1
  H  H407  1  0.75489916  0.53983104  0.76295815  1
