# generated using pymatgen
data_Zn3H6C18O13
_symmetry_space_group_name_H-M   'P 1'
_cell_length_a   18.91640531
_cell_length_b   15.24445774
_cell_length_c   17.61836585
_cell_angle_alpha   90.00000000
_cell_angle_beta   90.00000000
_cell_angle_gamma   90.00000000
_symmetry_Int_Tables_number   1
_chemical_formula_structural   Zn3H6C18O13
_chemical_formula_sum   'Zn24 H48 C144 O104'
_cell_volume   5080.61417373
_cell_formula_units_Z   8
loop_
 _symmetry_equiv_pos_site_id
 _symmetry_equiv_pos_as_xyz
  1  'x, y, z'
loop_
 _atom_site_type_symbol
 _atom_site_label
 _atom_site_symmetry_multiplicity
 _atom_site_fract_x
 _atom_site_fract_y
 _atom_site_fract_z
 _atom_site_occupancy
  C  C0  1  0.24362859  0.14545539  0.46016312  1
  C  C1  1  0.42377658  0.17214753  0.12483223  1
  C  C2  1  0.39466568  0.21592383  0.25220546  1
  Zn  Zn3  1  0.19671289  0.05634718  0.03352737  1
  C  C4  1  0.11578256  0.22268269  0.41184135  1
  H  H5  1  0.33757278  0.19247163  0.04370825  1
  H  H6  1  0.20486520  0.02430959  0.42148523  1
  C  C7  1  0.03490375  0.07139268  0.01860011  1
  C  C8  1  0.06562366  0.08424309  0.37266415  1
  O  O9  1  0.21685854  0.20189183  0.05873278  1
  C  C10  1  0.19274830  0.09458038  0.42477322  1
  O  O11  1  0.08843560  0.04760993  0.05713214  1
  C  C12  1  0.35280074  0.19429963  0.10396960  1
  C  C13  1  0.01143770  0.16275494  0.03166508  1
  C  C14  1  0.30257858  0.21981471  0.15579768  1
  C  C15  1  0.46401020  0.12971003  0.06396353  1
  O  O16  1  0.01668218  0.12477347  0.34839434  1
  C  C17  1  0.12859728  0.13345951  0.40341607  1
  O  O18  1  0.33237657  0.03897635  0.45821406  1
  C  C19  1  0.22918682  0.22629406  0.12392397  1
  H  H20  1  0.08375960  0.19081882  0.12284051  1
  C  C21  1  0.04422161  0.21723023  0.08572630  1
  C  C22  1  0.44322867  0.18057332  0.19971318  1
  O  O23  1  0.48775231  0.17566393  0.34548662  1
  H  H24  1  0.49572848  0.16367911  0.21826430  1
  C  C25  1  0.42020134  0.22994471  0.32829804  1
  C  C26  1  0.31609642  0.11140003  0.48709283  1
  C  C27  1  0.23537191  0.23720713  0.46650988  1
  O  O28  1  0.26991036  0.01922373  0.25988253  1
  O  O29  1  0.17659466  0.24908349  0.16607440  1
  C  C30  1  0.32120594  0.24300163  0.23139977  1
  O  O31  1  0.22948087  0.11244040  0.92361133  1
  C  C32  1  0.18816308  0.13442090  0.86955217  1
  Zn  Zn33  1  0.42070445  0.13467694  0.61854344  1
  O  O34  1  0.40770344  0.06660768  0.83382691  1
  O  O35  1  0.15057824  0.08745580  0.83294514  1
  Zn  Zn36  1  0.47673578  0.01796848  0.91448826  1
  O  O37  1  0.42258733  0.04175674  0.71215542  1
  C  C38  1  0.38734067  0.03588967  0.77143284  1
  O  O39  1  0.35886772  0.16174107  0.51705772  1
  H  H40  1  0.12496677  0.20694128  0.74321122  1
  O  O41  1  0.46804966  0.24875823  0.66922560  1
  C  C42  1  0.19438197  0.22811885  0.83747494  1
  O  O43  1  0.43936553  0.12549443  0.99594358  1
  O  O44  1  0.11138209  0.40810323  0.43443441  1
  H  H45  1  0.06872849  0.25679152  0.39419135  1
  C  C46  1  0.17076746  0.27142764  0.44338281  1
  Zn  Zn47  1  0.18006107  0.35054520  0.24637834  1
  O  O48  1  0.07102077  0.33331704  0.21586564  1
  C  C49  1  0.16513402  0.36982644  0.45736763  1
  C  C50  1  0.03617722  0.36295214  0.16019182  1
  O  O51  1  0.02745022  0.44081951  0.15176653  1
  C  C52  1  0.01245570  0.29739681  0.09563994  1
  O  O53  1  0.27449489  0.27608874  0.27253212  1
  O  O54  1  0.39828604  0.27930754  0.37427717  1
  O  O55  1  0.18418629  0.49098606  0.25774581  1
  O  O56  1  0.21360903  0.40607961  0.49594121  1
  H  H57  1  0.27619548  0.28077539  0.48782249  1
  C  C58  1  0.21347531  0.39797006  0.79415906  1
  C  C59  1  0.24183023  0.28031991  0.87817515  1
  C  C60  1  0.12469798  0.38155504  0.68843243  1
  O  O61  1  0.13895082  0.46167737  0.67516877  1
  C  C62  1  0.47212132  0.32572536  0.63817258  1
  C  C63  1  0.16036205  0.25456947  0.77115288  1
  C  C64  1  0.24614808  0.36898158  0.85920928  1
  O  O65  1  0.43104777  0.34949426  0.58764950  1
  O  O66  1  0.07988672  0.34010958  0.65244968  1
  C  C67  1  0.16761228  0.34190638  0.75131653  1
  C  C68  1  0.29154583  0.43207467  0.90916638  1
  O  O69  1  0.32274226  0.40697862  0.96436814  1
  H  H70  1  0.21613143  0.46932034  0.78152967  1
  H  H71  1  0.26720299  0.25407726  0.92877869  1
  C  C72  1  0.23927894  0.63996057  0.18884600  1
  O  O73  1  0.19747402  0.55581988  0.36992641  1
  H  H74  1  0.29216006  0.65775650  0.37308837  1
  Zn  Zn75  1  0.09122572  0.55118349  0.42986977  1
  H  H76  1  0.20784457  0.59015362  0.15492478  1
  H  H77  1  0.05193446  0.71458454  0.27362133  1
  C  C78  1  0.28808116  0.67313651  0.31210960  1
  O  O79  1  0.07394495  0.69072954  0.38979839  1
  O  O80  1  0.22221711  0.69478493  0.03654599  1
  C  C81  1  0.24873495  0.61975347  0.26482456  1
  C  C82  1  0.20730390  0.54836075  0.30115389  1
  C  C83  1  0.27171416  0.71676274  0.16148052  1
  O  O84  1  0.47272240  0.72611326  0.03651918  1
  C  C85  1  0.49152752  0.74620465  0.10132870  1
  O  O86  1  0.00166366  0.71722505  0.14669190  1
  C  C87  1  0.26200794  0.73984847  0.08137253  1
  O  O88  1  0.14333051  0.59019833  0.82356202  1
  C  C89  1  0.30782172  0.71883299  0.71103917  1
  C  C90  1  0.32523491  0.71653734  0.63514270  1
  H  H91  1  0.25859315  0.69369294  0.73539613  1
  Zn  Zn92  1  0.23704834  0.61821048  0.90792928  1
  C  C93  1  0.10076137  0.56678310  0.87133883  1
  Zn  Zn94  1  0.10827746  0.71801490  0.57324129  1
  O  O95  1  0.00190973  0.72087371  0.94050161  1
  C  C96  1  0.27379460  0.67241535  0.58339628  1
  O  O97  1  0.21495938  0.64285205  0.60828853  1
  O  O98  1  0.28222986  0.67744235  0.51216143  1
  C  C99  1  0.02921562  0.53788643  0.86860812  1
  O  O100  1  0.03244848  0.71050347  0.67183920  1
  O  O101  1  0.11417567  0.59222137  0.53150211  1
  O  O102  1  0.12069964  0.59326513  0.94077918  1
  H  H103  1  0.02606480  0.55027020  0.73866876  1
  H  H104  1  0.40248597  0.74904340  0.54085129  1
  O  O105  1  0.29457769  0.50672825  0.87945483  1
  H  H106  1  0.00197381  0.71777380  0.81314207  1
  H  H107  1  0.00488624  0.56567084  0.99017412  1
  Zn  Zn108  1  0.18428252  0.50688107  0.57386632  1
  Zn  Zn109  1  0.11623678  0.73327556  0.98405141  1
  O  O110  1  0.28159238  0.73217639  0.86220972  1
  O  O111  1  0.38872752  0.87632860  0.31283943  1
  C  C112  1  0.13621233  0.88115247  0.17507990  1
  Zn  Zn113  1  0.25569461  0.80705498  0.45983686  1
  O  O114  1  0.23863454  0.99913091  0.14176079  1
  C  C115  1  0.04394925  0.77848756  0.12987213  1
  H  H116  1  0.32224079  0.83874009  0.18847052  1
  C  C117  1  0.18082381  0.91058369  0.23281757  1
  C  C118  1  0.17833141  0.87608498  0.30942383  1
  C  C119  1  0.13173737  0.80049729  0.31949777  1
  C  C120  1  0.36163306  0.81066952  0.33921601  1
  O  O121  1  0.22140128  0.89370161  0.36223572  1
  O  O122  1  0.04216444  0.81625612  0.06684322  1
  H  H123  1  0.13812854  0.90581235  0.11587328  1
  C  C124  1  0.08791954  0.76933237  0.26387167  1
  C  C125  1  0.23083009  0.98125545  0.21007667  1
  C  C126  1  0.09117412  0.81117787  0.19213470  1
  O  O127  1  0.36220576  0.79547244  0.41148588  1
  O  O128  1  0.14834185  0.77726994  0.45266366  1
  O  O129  1  0.29644428  0.80124028  0.05263653  1
  O  O130  1  0.47449795  0.81816102  0.13364851  1
  C  C131  1  0.11784664  0.75033383  0.38949738  1
  C  C132  1  0.31031421  0.77175789  0.20876683  1
  H  H133  1  0.01607127  0.98345742  0.35027913  1
  Zn  Zn134  1  0.32091095  0.99187051  0.35789090  1
  O  O135  1  0.06693773  0.99236285  0.36641720  1
  C  C136  1  0.31966673  0.75171143  0.28480620  1
  Zn  Zn137  1  0.39374014  0.83544539  0.00654181  1
  C  C138  1  0.18203325  0.90256695  0.91237444  1
  C  C139  1  0.22635258  0.91238549  0.70256534  1
  C  C140  1  0.21443707  0.92671013  0.83708049  1
  O  O141  1  0.12974815  0.85429391  0.91238052  1
  H  H142  1  0.13566372  0.85894462  0.76634281  1
  C  C143  1  0.41448868  0.80782805  0.72937320  1
  C  C144  1  0.38759044  0.75448355  0.60036455  1
  C  C145  1  0.18844421  0.89369972  0.76801893  1
  C  C146  1  0.29164393  0.95345495  0.70073768  1
  O  O147  1  0.14096525  0.83489622  0.62605048  1
  H  H148  1  0.32387086  0.95823935  0.65047695  1
  O  O149  1  0.23579110  0.88363887  0.57021226  1
  C  C150  1  0.27946560  0.97153633  0.83446404  1
  C  C151  1  0.20039595  0.87432697  0.62801744  1
  O  O152  1  0.20636430  0.93862739  0.96993951  1
  H  H153  1  0.45164936  0.84072417  0.76561309  1
  C  C154  1  0.42743289  0.80142329  0.65112193  1
  C  C155  1  0.31736430  0.98879911  0.76818760  1
  C  C156  1  0.34038658  0.76427350  0.84121920  1
  O  O157  1  0.38232104  0.80002242  0.88554500  1
  O  O158  1  0.46702572  0.92976761  0.99374570  1
  C  C159  1  0.49435223  0.83755208  0.61742681  1
  C  C160  1  0.35727427  0.76188301  0.75709909  1
  H  H161  1  0.30474194  0.99393644  0.88695820  1
  C  C162  1  0.72060482  0.09020464  0.22141509  1
  O  O163  1  0.64775586  0.15347970  0.31702310  1
  C  C164  1  0.79625522  0.03833925  0.03257683  1
  O  O165  1  0.63089980  0.20238432  0.20437962  1
  C  C166  1  0.73435437  0.07927610  0.14523907  1
  C  C167  1  0.66124900  0.14960496  0.24741401  1
  H  H168  1  0.70081444  0.11207558  0.10435866  1
  Zn  Zn169  1  0.57917723  0.06493038  0.37703688  1
  C  C170  1  0.76096404  0.04130533  0.27263852  1
  C  C171  1  0.79438153  0.03468206  0.11664711  1
  H  H172  1  0.74621272  0.03448311  0.33567235  1
  O  O173  1  0.52099535  0.09246589  0.08207132  1
  O  O174  1  0.59694749  0.11250583  0.48947033  1
  H  H175  1  0.50516309  0.21778919  0.38127863  1
  O  O176  1  0.74463494  0.07708859  0.00100959  1
  C  C177  1  0.56881643  0.10301344  0.55293134  1
  O  O178  1  0.82284464  0.23151598  0.92886103  1
  C  C179  1  0.66947894  0.17973971  0.61474322  1
  C  C180  1  0.62811089  0.11404363  0.75875603  1
  C  C181  1  0.60886264  0.12879482  0.62294383  1
  H  H182  1  0.92791309  0.13927725  0.94950083  1
  O  O183  1  0.55819222  0.01945081  0.83914200  1
  C  C184  1  0.70511010  0.19914194  0.68103186  1
  C  C185  1  0.68924113  0.16253603  0.75271826  1
  Zn  Zn186  1  0.71091312  0.19708838  0.94488863  1
  O  O187  1  0.63011470  0.11059310  0.89489121  1
  C  C188  1  0.60364041  0.07835629  0.83631281  1
  C  C189  1  0.58693221  0.09953167  0.69528479  1
  H  H190  1  0.54071419  0.05949920  0.69983935  1
  H  H191  1  0.68271324  0.20427057  0.55762398  1
  H  H192  1  0.72029336  0.17412034  0.80228552  1
  O  O193  1  0.50915057  0.06899080  0.56375785  1
  C  C194  1  0.95181799  0.18778281  0.98830834  1
  O  O195  1  0.99935779  0.01573243  0.98146788  1
  O  O196  1  0.70065980  0.29682456  0.01873411  1
  O  O197  1  0.67401991  0.42917853  0.16338839  1
  H  H198  1  0.92949580  0.39471328  0.06189192  1
  Zn  Zn199  1  0.68776635  0.29001252  0.12727095  1
  O  O200  1  0.63367779  0.38989071  0.41518042  1
  C  C201  1  0.81776966  0.33631594  0.22175472  1
  C  C202  1  0.95481855  0.32993550  0.05432729  1
  H  H203  1  0.91842169  0.43291537  0.27326931  1
  C  C204  1  0.75459615  0.38745863  0.34587245  1
  O  O205  1  0.76720122  0.28330880  0.20334150  1
  O  O206  1  0.86533617  0.35219534  0.17935700  1
  C  C207  1  0.87349761  0.43578430  0.31388563  1
  C  C208  1  0.75370976  0.43063496  0.41408077  1
  H  H209  1  0.70911971  0.35107637  0.32375641  1
  C  C210  1  0.81445380  0.38715102  0.29711622  1
  C  C211  1  0.87305907  0.48159943  0.38410564  1
  C  C212  1  0.81692868  0.47423547  0.44158905  1
  C  C213  1  0.68177860  0.42247321  0.45037705  1
  C  C214  1  0.64612821  0.48706026  0.12506783  1
  O  O215  1  0.64461279  0.47837607  0.05408670  1
  C  C216  1  0.92411446  0.27113100  0.00468784  1
  Zn  Zn217  1  0.77148958  0.43595754  0.59688881  1
  C  C218  1  0.63542942  0.47920742  0.73519513  1
  C  C219  1  0.62424902  0.39578081  0.76121223  1
  C  C220  1  0.85664944  0.29182692  0.96435966  1
  O  O221  1  0.65913874  0.29575746  0.85737472  1
  O  O222  1  0.83241129  0.36464624  0.97957710  1
  C  C223  1  0.57552999  0.34288016  0.72551082  1
  H  H224  1  0.50789408  0.48968140  0.59511594  1
  O  O225  1  0.70408409  0.42600460  0.86243674  1
  C  C226  1  0.54166865  0.46675174  0.64369909  1
  C  C227  1  0.67194600  0.36896342  0.83032640  1
  O  O228  1  0.77781132  0.30062041  0.61682742  1
  C  C229  1  0.53382251  0.38086899  0.66786864  1
  O  O230  1  0.67640026  0.43520629  0.52259581  1
  Zn  Zn231  1  0.96380278  0.43081779  0.86252736  1
  H  H232  1  0.56766397  0.27337176  0.73938812  1
  Zn  Zn233  1  0.73049629  0.42395178  0.99051491  1
  O  O234  1  0.82272991  0.49295726  0.69590036  1
  C  C235  1  0.76910868  0.25791441  0.67794352  1
  O  O236  1  0.81147672  0.26624939  0.73002366  1
  O  O237  1  0.88503426  0.57047242  0.04973667  1
  C  C238  1  0.94185990  0.52090450  0.40084107  1
  C  C239  1  0.57234358  0.62028331  0.11005477  1
  C  C240  1  0.61222154  0.56977266  0.15947712  1
  H  H241  1  0.65991358  0.54003265  0.26768155  1
  O  O242  1  0.63705944  0.62708655  0.39465201  1
  O  O243  1  0.55115865  0.71902713  0.38235914  1
  C  C244  1  0.60044736  0.67124301  0.35266820  1
  C  C245  1  0.59276192  0.65726734  0.26810111  1
  O  O246  1  0.95671431  0.55748179  0.46568022  1
  Zn  Zn247  1  0.89614878  0.69650323  0.09776246  1
  C  C248  1  0.53763247  0.68652835  0.15099514  1
  C  C249  1  0.62581409  0.58316100  0.23592390  1
  O  O250  1  0.86376758  0.70252054  0.22536172  1
  C  C251  1  0.54776699  0.71122064  0.22575886  1
  H  H252  1  0.56786056  0.60803217  0.04627288  1
  H  H253  1  0.80368007  0.74205309  0.37722416  1
  H  H254  1  0.85397270  0.70026818  0.28526684  1
  O  O255  1  0.99461067  0.51640409  0.35606515  1
  C  C256  1  0.95112897  0.74187472  0.80017785  1
  C  C257  1  0.60539033  0.60599264  0.64481342  1
  O  O258  1  0.79179586  0.54417357  0.98222194  1
  H  H259  1  0.66784029  0.52772956  0.76671824  1
  C  C260  1  0.96820115  0.72710569  0.65937384  1
  O  O261  1  0.65254567  0.65749988  0.67171270  1
  O  O262  1  0.92078684  0.54266146  0.64928765  1
  C  C263  1  0.90175800  0.52126687  0.92696264  1
  O  O264  1  0.56618502  0.63362277  0.59351476  1
  Zn  Zn265  1  0.89377788  0.60663743  0.54870791  1
  O  O266  1  0.94067470  0.72500953  0.59464575  1
  C  C267  1  0.85712752  0.54887202  0.98702310  1
  C  C268  1  0.98076825  0.53926669  0.93565693  1
  C  C269  1  0.91949216  0.50543286  0.77937372  1
  C  C270  1  0.59730826  0.51590617  0.67358079  1
  C  C271  1  0.87126575  0.50343952  0.84807592  1
  H  H272  1  0.81772819  0.51924468  0.83764863  1
  C  C273  1  0.99559181  0.53209748  0.78998467  1
  C  C274  1  0.88774046  0.50628569  0.70405444  1
  O  O275  1  0.81490632  0.50900647  0.50728957  1
  Zn  Zn276  1  0.56849348  0.72276345  0.50423841  1
  C  C277  1  0.60025334  0.93768638  0.24595457  1
  O  O278  1  0.59944470  0.93716354  0.17133391  1
  C  C279  1  0.69979399  0.84138399  0.24108066  1
  Zn  Zn280  1  0.93093220  0.91924525  0.03087375  1
  O  O281  1  0.92544595  0.90597128  0.27796262  1
  O  O282  1  0.85097949  0.95484221  0.37229298  1
  C  C283  1  0.65367267  0.88674556  0.28581714  1
  C  C284  1  0.72672702  0.80485290  0.47769081  1
  O  O285  1  0.89878977  0.96000104  0.14195617  1
  C  C286  1  0.75662488  0.79120012  0.27175624  1
  C  C287  1  0.71445573  0.82493822  0.39920653  1
  C  C288  1  0.66478223  0.88944148  0.36768303  1
  Zn  Zn289  1  0.52474397  0.94339711  0.08986599  1
  C  C290  1  0.86509120  0.95266657  0.30669417  1
  O  O291  1  0.62583874  0.94091403  0.40382703  1
  H  H292  1  0.92128964  0.91785121  0.22355888  1
  H  H293  1  0.69222756  0.83925467  0.17909286  1
  C  C294  1  0.76252455  0.78322726  0.35007560  1
  H  H295  1  0.51989100  0.76899372  0.24827858  1
  C  C296  1  0.80470163  0.75611534  0.21129702  1
  O  O297  1  0.79671577  0.77539277  0.14439824  1
  C  C298  1  0.84396966  0.99581865  0.16843846  1
  C  C299  1  0.81969482  0.99508574  0.24835779  1
  O  O300  1  0.55567582  0.97789958  0.28057231  1
  C  C301  1  0.91097171  0.76267834  0.86190530  1
  O  O302  1  0.54438202  0.86289448  0.65619338  1
  O  O303  1  0.71575937  0.88405349  0.82040503  1
  O  O304  1  0.67653098  0.84233572  0.53765576  1
  C  C305  1  0.82156465  0.81495512  0.77609927  1
  H  H306  1  0.80948163  0.81688404  0.89877450  1
  Zn  Zn307  1  0.64144163  0.79387992  0.65079894  1
  C  C308  1  0.75271611  0.86432841  0.76630492  1
  C  C309  1  0.84435971  0.80116668  0.84974707  1
  C  C310  1  0.85853198  0.79157286  0.71111227  1
  H  H311  1  0.83909083  0.81217518  0.65574642  1
  O  O312  1  0.72689634  0.86805237  0.69956593  1
  O  O313  1  0.50081316  0.82383154  0.54810276  1
  O  O314  1  0.90840193  0.78515526  0.99721267  1
  C  C315  1  0.92199757  0.75011157  0.72545049  1
  C  C316  1  0.94171959  0.75592747  0.93822917  1
  H  H317  1  0.64945531  0.87809985  0.50011849  1
  O  O318  1  0.77578974  0.76492538  0.50018775  1
  O  O319  1  0.84247057  0.99944477  0.99360801  1
