# generated using pymatgen
data_Cu4H32C65(N3O4)4
_symmetry_space_group_name_H-M   'P 1'
_cell_length_a   36.65066412
_cell_length_b   19.74538510
_cell_length_c   11.20496953
_cell_angle_alpha   90.00000000
_cell_angle_beta   90.00000000
_cell_angle_gamma   90.00000000
_symmetry_Int_Tables_number   1
_chemical_formula_structural   Cu4H32C65(N3O4)4
_chemical_formula_sum   'Cu16 H128 C260 N48 O64'
_cell_volume   8108.82889904
_cell_formula_units_Z   4
loop_
 _symmetry_equiv_pos_site_id
 _symmetry_equiv_pos_as_xyz
  1  'x, y, z'
loop_
 _atom_site_type_symbol
 _atom_site_label
 _atom_site_symmetry_multiplicity
 _atom_site_fract_x
 _atom_site_fract_y
 _atom_site_fract_z
 _atom_site_occupancy
  N  N0  1  0.15507189  0.35323767  0.07128705  1
  C  C1  1  0.00832387  0.41570774  0.31285694  1
  C  C2  1  0.06285565  0.39288780  0.44437606  1
  C  C3  1  0.01283395  0.48613757  0.33649657  1
  O  O4  1  0.15657114  0.20599114  0.05937956  1
  C  C5  1  0.03440991  0.36926475  0.36685898  1
  C  C6  1  0.06422956  0.46452928  0.47546918  1
  Cu  Cu7  1  0.20186449  0.24357409  0.03873057  1
  H  H8  1  0.03435991  0.31805247  0.33971506  1
  C  C9  1  0.00467364  0.36904868  0.11224396  1
  C  C10  1  0.07022452  0.07881730  0.20501305  1
  H  H11  1  0.11627971  0.09818440  0.08418171  1
  C  C12  1  0.09754264  0.11785627  0.15421725  1
  N  N13  1  0.03275925  0.20424622  0.40990711  1
  C  C14  1  0.07905171  0.21256575  0.26300987  1
  H  H15  1  0.08352581  0.26355524  0.29937549  1
  H  H16  1  0.02562291  0.07473651  0.33885631  1
  C  C17  1  0.04613422  0.10476726  0.29110105  1
  C  C18  1  0.04238273  0.38167044  0.09731063  1
  C  C19  1  0.13505556  0.22971736  0.13345289  1
  C  C20  1  0.05344903  0.17230488  0.32555095  1
  O  O21  1  0.13776926  0.28621946  0.17418567  1
  H  H22  1  0.05712962  0.41466704  0.16401998  1
  C  C23  1  0.10321108  0.18657157  0.18112066  1
  C  C24  1  0.06334310  0.00695938  0.16856789  1
  N  N25  1  0.17882143  0.33521702  0.00652133  1
  H  H26  1  0.02399555  0.29539319  0.49109136  1
  H  H27  1  0.08315674  0.35701267  0.48591680  1
  H  H28  1  0.00681823  0.26337049  0.16868234  1
  H  H29  1  0.03453708  0.11199777  0.47142188  1
  C  C30  1  0.02121603  0.16136723  0.48829715  1
  O  O31  1  0.24409484  0.28648702  0.02350369  1
  C  C32  1  0.06060448  0.34840217  0.00303629  1
  C  C33  1  0.00245511  0.28554042  0.94907747  1
  C  C34  1  0.13536075  0.02439451  0.67381176  1
  C  C35  1  0.00071845  0.30606899  0.55332475  1
  H  H36  1  0.16062701  0.11937787  0.72269558  1
  C  C37  1  0.07217805  0.02110223  0.61991983  1
  N  N38  1  0.09064695  0.31519873  0.79723144  1
  N  N39  1  0.11469502  0.32661101  0.72124415  1
  C  C40  1  0.04111724  0.29966360  0.93393203  1
  C  C41  1  0.03074364  0.46810303  0.87572611  1
  C  C42  1  0.06699204  0.08789325  0.65872181  1
  H  H43  1  0.05604407  0.44095451  0.89561039  1
  N  N44  1  0.09691448  0.18642836  0.73058705  1
  N  N45  1  0.12566009  0.40827174  0.70875682  1
  C  C46  1  0.13397718  0.09144160  0.70449037  1
  H  H47  1  0.04130617  0.11811685  0.64333483  1
  H  H48  1  0.05372052  0.15957809  0.83685893  1
  C  C49  1  0.06755500  0.26918900  0.84765551  1
  N  N50  1  0.10516571  0.43984464  0.64073405  1
  C  C51  1  0.09871024  0.12117560  0.70196307  1
  C  C52  1  0.07123029  0.20192212  0.80655963  1
  O  O53  1  0.01150067  0.02830076  0.56576724  1
  H  H54  1  0.00519679  0.38122465  0.79026229  1
  O  O55  1  0.19857814  0.03148811  0.71358742  1
  C  C56  1  0.00282819  0.43359313  0.81794144  1
  C  C57  1  0.08904024  0.48692908  0.57376717  1
  H  H58  1  0.08949326  0.35457500  0.99144483  1
  N  N59  1  0.01053991  0.68383629  0.17545130  1
  C  C60  1  0.10467552  0.83427138  0.40871243  1
  H  H61  1  0.04132743  0.56461941  0.42504121  1
  O  O62  1  0.12620290  0.87824025  0.39922832  1
  O  O63  1  0.03839600  0.96841360  0.22123354  1
  N  N64  1  0.05277796  0.66824956  0.11181160  1
  Cu  Cu65  1  0.04853087  0.91612195  0.34767921  1
  C  C66  1  0.04076916  0.50957096  0.40937545  1
  O  O67  1  0.06997620  0.83548261  0.38640988  1
  N  N68  1  0.05131377  0.61822541  0.04665821  1
  H  H69  1  0.06520476  0.71560748  0.44207783  1
  O  O70  1  0.08187410  0.98366757  0.09348059  1
  N  N71  1  0.00636980  0.64756843  0.26755428  1
  C  C72  1  0.09214355  0.71489768  0.48719280  1
  C  C73  1  0.11511057  0.76895861  0.47367025  1
  O  O74  1  0.21628926  0.77941580  0.01716585  1
  C  C75  1  0.12185453  0.65441167  0.92069553  1
  C  C76  1  0.05855412  0.56809553  0.96568345  1
  C  C77  1  0.10495577  0.65890130  0.55645729  1
  C  C78  1  0.09450051  0.55167891  0.91958986  1
  H  H79  1  0.00469229  0.53485699  0.66789614  1
  O  O80  1  0.06649514  0.85334693  0.81922609  1
  C  C81  1  0.09105979  0.68742588  0.86660426  1
  C  C82  1  0.02588496  0.53659408  0.90648076  1
  C  C83  1  0.10488159  0.98699442  0.63895919  1
  C  C84  1  0.16362662  0.71452082  0.57846574  1
  O  O85  1  0.17474649  0.92927323  0.69677452  1
  C  C86  1  0.06318824  0.79287527  0.80462055  1
  H  H87  1  0.11970995  0.56584913  0.67591202  1
  O  O88  1  0.03307873  0.76546347  0.76803699  1
  O  O89  1  0.21424148  0.67586797  0.69285144  1
  H  H90  1  0.06371907  0.66203297  0.85397124  1
  C  C91  1  0.17116048  0.99105113  0.69555687  1
  H  H92  1  0.10724822  0.93227919  0.61344433  1
  C  C93  1  0.09648851  0.75412521  0.84814186  1
  C  C94  1  0.09679831  0.55445952  0.61172139  1
  C  C95  1  0.15742260  0.75997952  0.93412212  1
  Cu  Cu96  1  0.21442156  0.87674413  0.75221169  1
  H  H97  1  0.12429112  0.84647470  0.87944919  1
  O  O98  1  0.19238120  0.85926358  0.90504885  1
  H  H99  1  0.15203203  0.61522891  0.64415696  1
  H  H100  1  0.16755615  0.81653431  0.50885537  1
  C  C101  1  0.15474399  0.69116260  0.94528949  1
  O  O102  1  0.21746860  0.77813791  0.61295357  1
  N  N103  1  0.12455018  0.58572644  0.92435315  1
  C  C104  1  0.14231735  0.66087378  0.60083705  1
  C  C105  1  0.20210804  0.71776104  0.63099276  1
  C  C106  1  0.12598505  0.79153863  0.88978535  1
  C  C107  1  0.19251027  0.80019387  0.95866677  1
  O  O108  1  0.03901066  0.93386151  0.51860450  1
  N  N109  1  0.08529702  0.60263492  0.54356178  1
  C  C110  1  0.04015776  0.99207403  0.56216680  1
  Cu  Cu111  1  0.23984220  0.99142600  0.74472543  1
  C  C112  1  0.15111674  0.77108125  0.51621576  1
  H  H113  1  0.10829169  0.50158947  0.90391547  1
  H  H114  1  0.17882646  0.66093496  0.98079673  1
  H  H115  1  0.01347401  0.62348074  0.50593436  1
  N  N116  1  0.43013516  0.02127785  0.43724200  1
  C  C117  1  0.32964915  0.48425068  0.05549026  1
  H  H118  1  0.39186666  0.41465289  0.05383503  1
  C  C119  1  0.47190312  0.28680142  0.13069661  1
  C  C120  1  0.47799992  0.08766359  0.16799311  1
  N  N121  1  0.47446860  0.32761844  0.05322887  1
  N  N122  1  0.40620844  0.27868268  0.04267854  1
  C  C123  1  0.33401297  0.40831783  0.04501028  1
  C  C124  1  0.48088174  0.21205265  0.32132825  1
  N  N125  1  0.41133433  0.10119060  0.47153549  1
  H  H126  1  0.46331094  0.12236680  0.22825535  1
  H  H127  1  0.45060876  0.20959274  0.34476882  1
  C  C128  1  0.27668930  0.25667547  0.01607477  1
  C  C129  1  0.46646797  0.01877298  0.14555725  1
  C  C130  1  0.43594183  0.31547867  0.03058676  1
  C  C131  1  0.36807412  0.38123754  0.04423067  1
  H  H132  1  0.27466820  0.39247794  0.04225588  1
  C  C133  1  0.37578723  0.30971405  0.02896158  1
  C  C134  1  0.30228606  0.37020268  0.03492827  1
  C  C135  1  0.34388129  0.27077925  0.01970491  1
  H  H136  1  0.42921923  0.36925230  0.00712514  1
  C  C137  1  0.30972641  0.30136757  0.02325666  1
  H  H138  1  0.34722880  0.21538661  0.00123002  1
  O  O139  1  0.28018173  0.19712580  0.00615261  1
  N  N140  1  0.43259991  0.01040832  0.32867885  1
  H  H141  1  0.48815707  0.14010162  0.45013782  1
  C  C142  1  0.49432694  0.25082892  0.21704448  1
  O  O143  1  0.28036974  0.29633462  0.68419674  1
  H  H144  1  0.32542340  0.46614785  0.79238682  1
  C  C145  1  0.47027797  0.16572872  0.70242576  1
  C  C146  1  0.40737905  0.38985575  0.76538566  1
  C  C147  1  0.34619553  0.42783313  0.77287688  1
  H  H148  1  0.49079169  0.08289995  0.58738920  1
  H  H149  1  0.43744653  0.39991280  0.78561902  1
  C  C150  1  0.38260781  0.43942982  0.79121009  1
  C  C151  1  0.49591504  0.11415527  0.66885843  1
  N  N152  1  0.42387991  0.28555912  0.70322722  1
  C  C153  1  0.43693744  0.17744444  0.63113704  1
  H  H154  1  0.45407037  0.24256940  0.83856719  1
  C  C155  1  0.47552034  0.20442221  0.81150309  1
  C  C156  1  0.39533815  0.32666704  0.71605050  1
  C  C157  1  0.41521864  0.23698234  0.63162370  1
  H  H158  1  0.34674149  0.26268642  0.67139950  1
  C  C159  1  0.35654151  0.31203031  0.70388844  1
  O  O160  1  0.27084739  0.39344267  0.76842569  1
  H  H161  1  0.38901998  0.24432454  0.58726007  1
  C  C162  1  0.33475268  0.36228090  0.73855562  1
  C  C163  1  0.29122700  0.35014606  0.72986628  1
  N  N164  1  0.42958668  0.12784920  0.55119126  1
  H  H165  1  0.38061300  0.94401550  0.24487627  1
  C  C166  1  0.40125883  0.95636854  0.18014613  1
  O  O167  1  0.33031647  0.71501649  0.23088031  1
  C  C168  1  0.35912671  0.83947358  0.12005772  1
  C  C169  1  0.32874258  0.80114038  0.08751950  1
  C  C170  1  0.47998569  0.98120423  0.04401202  1
  H  H171  1  0.37690596  0.82899588  0.19636374  1
  O  O172  1  0.29755097  0.69388533  0.07425499  1
  Cu  Cu173  1  0.29740580  0.59877757  0.06609346  1
  C  C174  1  0.36512176  0.89865533  0.05493647  1
  C  C175  1  0.31765198  0.73335610  0.13858232  1
  O  O176  1  0.29858286  0.50914950  0.04193197  1
  N  N177  1  0.39642591  0.93696970  0.07203575  1
  H  H178  1  0.46495820  0.93258829  0.01955848  1
  O  O179  1  0.35707187  0.51714611  0.08499513  1
  C  C180  1  0.43274916  0.99625745  0.21448235  1
  O  O181  1  0.41432642  0.72665813  0.02665268  1
  Cu  Cu182  1  0.36645814  0.59810972  0.00781599  1
  C  C183  1  0.36556358  0.78299790  0.76266189  1
  C  C184  1  0.28647909  0.89532026  0.82503268  1
  H  H185  1  0.44630383  0.81691864  0.91947580  1
  H  H186  1  0.48024879  0.94965992  0.53130387  1
  C  C187  1  0.48723703  0.88157744  0.75956042  1
  O  O188  1  0.26253219  0.85388574  0.80022228  1
  C  C189  1  0.39225060  0.73050173  0.95004775  1
  C  C190  1  0.34174598  0.91863814  0.95763791  1
  C  C191  1  0.36908408  0.83295091  0.67720109  1
  H  H192  1  0.48422404  0.84221422  0.82580246  1
  O  O193  1  0.31408151  0.78809868  0.57203254  1
  H  H194  1  0.34357012  0.74562279  0.76131912  1
  O  O195  1  0.36709391  0.68489105  0.93458047  1
  C  C196  1  0.42623051  0.86739366  0.75798946  1
  N  N197  1  0.45713498  0.90021667  0.71700834  1
  H  H198  1  0.28787725  0.78187111  0.97581909  1
  C  C199  1  0.39340142  0.78341632  0.84883932  1
  C  C200  1  0.42422794  0.82304632  0.85847160  1
  C  C201  1  0.39737119  0.87753681  0.67503535  1
  Cu  Cu202  1  0.26508013  0.78402470  0.59653454  1
  C  C203  1  0.34025011  0.83500641  0.57962321  1
  H  H204  1  0.40203701  0.91427294  0.59950376  1
  O  O205  1  0.28504589  0.95399893  0.77937440  1
  H  H206  1  0.34566664  0.96704275  0.91119120  1
  C  C207  1  0.31407959  0.87868367  0.91928122  1
  O  O208  1  0.43030950  0.51041813  0.84524504  1
  C  C209  1  0.39737132  0.50367520  0.83502379  1
  O  O210  1  0.37425373  0.55163535  0.86693382  1
  C  C211  1  0.30892271  0.81841745  0.98569967  1
  O  O212  1  0.34158237  0.88038008  0.51383044  1
  C  C213  1  0.57079883  0.11089626  0.39180446  1
  C  C214  1  0.50650075  0.11220294  0.09583597  1
  N  N215  1  0.71218352  0.29208025  0.33256759  1
  C  C216  1  0.63067662  0.23797596  0.14323322  1
  C  C217  1  0.54098250  0.16081937  0.34801964  1
  C  C218  1  0.56327267  0.02729471  0.23243814  1
  H  H219  1  0.51678680  0.16294468  0.10387571  1
  C  C220  1  0.55485352  0.04921026  0.46188027  1
  C  C221  1  0.63253669  0.17283112  0.45240009  1
  C  C222  1  0.72986796  0.34542495  0.38773220  1
  C  C223  1  0.59085478  0.06029123  0.30171656  1
  C  C224  1  0.65495216  0.27325968  0.21749331  1
  H  H225  1  0.67292984  0.36094830  0.32251619  1
  C  C226  1  0.62642497  0.48508909  0.17949938  1
  O  O227  1  0.53353945  0.49606089  0.09771643  1
  C  C228  1  0.55543629  0.21074443  0.26780957  1
  C  C229  1  0.57803226  0.16423357  0.00868467  1
  H  H230  1  0.50090112  0.04524911  0.38886312  1
  H  H231  1  0.65183264  0.14409089  0.19859840  1
  C  C232  1  0.52381957  0.07242871  0.01042853  1
  C  C233  1  0.65688023  0.45421722  0.13510896  1
  C  C234  1  0.50313003  0.16868737  0.38013701  1
  H  H235  1  0.60254935  0.07466239  0.07777761  1
  Cu  Cu236  1  0.73436593  0.20840088  0.26457525  1
  C  C237  1  0.69476197  0.46215313  0.19197566  1
  C  C238  1  0.67859772  0.31069028  0.29074896  1
  C  C239  1  0.70997921  0.39377778  0.45511987  1
  C  C240  1  0.62954649  0.16430631  0.14555684  1
  H  H241  1  0.68012913  0.38990862  0.46525992  1
  C  C242  1  0.53362893  0.25465947  0.19856410  1
  H  H243  1  0.54569386  0.29193814  0.13326085  1
  H  H244  1  0.58472513  0.21482978  0.26096130  1
  O  O245  1  0.72079479  0.43423216  0.15240818  1
  H  H246  1  0.53709700  0.05063710  0.23390913  1
  H  H247  1  0.64819947  0.14364273  0.38632364  1
  O  O248  1  0.72288743  0.14899566  0.05686511  1
  C  C249  1  0.60245661  0.12888756  0.08670504  1
  H  H250  1  0.61179123  0.32867060  0.02930902  1
  C  C251  1  0.60708867  0.27613405  0.05706275  1
  H  H252  1  0.64861838  0.05244359  0.36845953  1
  C  C253  1  0.62676491  0.03428314  0.30330367  1
  C  C254  1  0.59599958  0.47480687  0.10473707  1
  C  C255  1  0.65823942  0.41660999  0.03101753  1
  O  O256  1  0.74504388  0.19259469  0.41858967  1
  C  C257  1  0.51905169  0.02159292  0.45050427  1
  C  C258  1  0.59335301  0.15966770  0.46596649  1
  H  H259  1  0.68239620  0.38591466  0.00827199  1
  O  O260  1  0.71272828  0.10718627  0.48055095  1
  C  C261  1  0.64898511  0.21851335  0.52653897  1
  C  C262  1  0.72002341  0.12586801  0.95406620  1
  C  C263  1  0.58345081  0.23646563  0.98931607  1
  C  C264  1  0.52643435  0.10395973  0.74254310  1
  C  C265  1  0.58861490  0.23599822  0.63888652  1
  H  H266  1  0.61235821  0.16339676  0.79755078  1
  C  C267  1  0.61398165  0.10705212  0.80981412  1
  C  C268  1  0.58106870  0.02011274  0.54091264  1
  C  C269  1  0.64741986  0.29805974  0.68759631  1
  Cu  Cu270  1  0.74605916  0.00496733  0.97189755  1
  H  H271  1  0.56970496  0.26356415  0.91556088  1
  H  H272  1  0.65943419  0.09830118  0.70059969  1
  C  C273  1  0.50629732  0.19892348  0.87800424  1
  C  C274  1  0.72479472  0.14011626  0.72843820  1
  C  C275  1  0.58741526  0.06920203  0.87647702  1
  C  C276  1  0.62720260  0.25235136  0.62086662  1
  H  H277  1  0.54628176  0.06489984  0.71999252  1
  H  H278  1  0.67862107  0.22635461  0.51268078  1
  H  H279  1  0.57370163  0.26580963  0.70576711  1
  C  C280  1  0.65507305  0.36676148  0.80330088  1
  C  C281  1  0.64054884  0.06703946  0.75621070  1
  H  H282  1  0.67946364  0.39737235  0.83675272  1
  O  O283  1  0.70856753  0.06675510  0.92930215  1
  N  N284  1  0.62459231  0.38207757  0.85482804  1
  C  C285  1  0.53100169  0.14489428  0.84679829  1
  C  C286  1  0.55641419  0.10974765  0.93739090  1
  H  H287  1  0.70982750  0.09336425  0.72020660  1
  C  C288  1  0.73079113  0.16314342  0.84543537  1
  C  C289  1  0.73631249  0.17931155  0.63297699  1
  N  N290  1  0.67415407  0.32722987  0.72384377  1
  H  H291  1  0.54182693  0.18653374  0.55820526  1
  C  C292  1  0.57270340  0.19266918  0.55771460  1
  H  H293  1  0.60886387  0.04112688  0.53657036  1
  C  C294  1  0.71349041  0.49147567  0.58554356  1
  O  O295  1  0.68066661  0.48963321  0.60157287  1
  C  C296  1  0.51028227  0.00633600  0.97963907  1
  C  C297  1  0.73226870  0.44123653  0.50864855  1
  C  C298  1  0.62702078  0.41652660  0.95445865  1
  H  H299  1  0.51230029  0.22622248  0.96473653  1
  C  C300  1  0.72938385  0.15718092  0.50204905  1
  H  H301  1  0.56874850  0.44591057  0.94424954  1
  C  C302  1  0.59361770  0.44473718  0.99671984  1
  H  H303  1  0.61614826  0.68694721  0.32943517  1
  C  C304  1  0.73182213  0.61163355  0.05618449  1
  C  C305  1  0.60465728  0.94137962  0.17179019  1
  C  C306  1  0.64181549  0.83586321  0.08264530  1
  H  H307  1  0.69898818  0.72437665  0.19935320  1
  H  H308  1  0.65895334  0.94800986  0.23968683  1
  O  O309  1  0.69633338  0.50436157  0.27848173  1
  C  C310  1  0.62106215  0.72840496  0.39572881  1
  C  C311  1  0.69619882  0.79880963  0.04891424  1
  C  C312  1  0.59864212  0.78441221  0.39838330  1
  Cu  Cu313  1  0.70530346  0.59975537  0.27361573  1
  C  C314  1  0.56817343  0.96688341  0.17059941  1
  O  O315  1  0.57031323  0.74343509  0.21368356  1
  C  C316  1  0.63311275  0.97424463  0.23906230  1
  C  C317  1  0.61041277  0.87813877  0.10477810  1
  C  C318  1  0.56846136  0.78396017  0.29814481  1
  H  H319  1  0.54420258  0.93969225  0.13838640  1
  C  C320  1  0.70387437  0.73425783  0.10023032  1
  O  O321  1  0.74225998  0.60094806  0.16139989  1
  O  O322  1  0.54561585  0.82737007  0.30912852  1
  C  C323  1  0.64898203  0.72370871  0.48158176  1
  O  O324  1  0.66825414  0.61703730  0.39919305  1
  N  N325  1  0.67596805  0.84557572  0.11648272  1
  C  C326  1  0.67006217  0.66041918  0.48405644  1
  N  N327  1  0.58108262  0.85453906  0.04484546  1
  N  N328  1  0.74268106  0.63679767  0.39771149  1
  C  C329  1  0.60110900  0.83732707  0.47433132  1
  H  H330  1  0.58063910  0.88106073  0.47903382  1
  O  O331  1  0.56198237  0.54657802  0.24183693  1
  C  C332  1  0.72006561  0.68591059  0.02992122  1
  H  H333  1  0.62630086  0.51786318  0.25884695  1
  H  H334  1  0.64188816  0.79286196  0.02393865  1
  C  C335  1  0.56148567  0.50760717  0.15814198  1
  H  H336  1  0.62446340  0.90732210  0.88435184  1
  C  C337  1  0.66871784  0.89953879  0.65549560  1
  C  C338  1  0.50842137  0.97363355  0.53471098  1
  C  C339  1  0.57204803  0.96793487  0.62171300  1
  C  C340  1  0.67679338  0.95370699  0.73800228  1
  C  C341  1  0.62084730  0.96139213  0.85920765  1
  N  N342  1  0.56939870  0.83392471  0.83211701  1
  H  H343  1  0.67650564  0.76884314  0.62564029  1
  Cu  Cu344  1  0.74027333  0.62450378  0.58155423  1
  H  H345  1  0.68915309  0.87103479  0.59981646  1
  C  C346  1  0.53501297  0.94643772  0.61591721  1
  C  C347  1  0.65590034  0.77623360  0.56087017  1
  N  N348  1  0.54905178  0.86543084  0.76519140  1
  O  O349  1  0.73444895  0.53716816  0.63636435  1
  C  C350  1  0.70667416  0.81976418  0.93226243  1
  N  N351  1  0.63606762  0.88578015  0.62518150  1
  H  H352  1  0.59411306  0.94628584  0.67211767  1
  N  N353  1  0.71045775  0.96046900  0.77195548  1
  H  H354  1  0.70053968  0.87266509  0.90126218  1
  C  C355  1  0.72807979  0.70353650  0.91066614  1
  O  O356  1  0.73576636  0.57100092  0.97950902  1
  C  C357  1  0.52210184  0.89856363  0.70737582  1
  C  C358  1  0.72172421  0.76871687  0.86522267  1
  O  O359  1  0.73480689  0.84502954  0.70774571  1
  N  N360  1  0.74252547  0.96795791  0.80382586  1
  O  O361  1  0.68949968  0.65090661  0.57265634  1
  H  H362  1  0.57265112  0.96961369  0.95840394  1
  H  H363  1  0.52228963  0.98022875  0.89927914  1
  C  C364  1  0.59082377  0.99824605  0.90092295  1
  H  H365  1  0.74049617  0.66740987  0.84776537  1
  C  C366  1  0.63310581  0.83344258  0.54951232  1
  C  C367  1  0.73481602  0.78159226  0.73682918  1
  C  C368  1  0.64498913  0.99759174  0.78047193  1
  O  O369  1  0.74313379  0.73450635  0.67855344  1
  N  N370  1  0.55663187  0.83213981  0.98138115  1
  C  C371  1  0.93754194  0.19403988  0.34675038  1
  N  N372  1  0.88139139  0.02644542  0.28618522  1
  H  H373  1  0.97926920  0.15490420  0.22326911  1
  C  C374  1  0.89899863  0.07979932  0.33430362  1
  H  H375  1  0.93715225  0.36218310  0.44563755  1
  O  O376  1  0.84559801  0.35389799  0.37069560  1
  C  C377  1  0.98334961  0.26223943  0.23640322  1
  H  H378  1  0.85948873  0.45658352  0.00418254  1
  C  C379  1  0.94725956  0.43242869  0.19095254  1
  N  N380  1  0.79868289  0.43718178  0.13290649  1
  C  C381  1  0.88446703  0.47548493  0.19400022  1
  O  O382  1  0.84348613  0.45293670  0.45838481  1
  C  C383  1  0.78734454  0.39398588  0.43924856  1
  C  C384  1  0.91640223  0.13257629  0.34219938  1
  C  C385  1  0.98045301  0.38730688  0.22491219  1
  H  H386  1  0.95505404  0.32263858  0.04108808  1
  H  H387  1  0.78349322  0.29991771  0.33772460  1
  C  C388  1  0.76842158  0.34166271  0.38692196  1
  C  C389  1  0.92787710  0.25499564  0.41446773  1
  C  C390  1  0.87855745  0.01562224  0.15999345  1
  C  C391  1  0.94311594  0.31791574  0.38919311  1
  C  C392  1  0.96604572  0.19969258  0.26028535  1
  H  H393  1  0.93547347  0.05355688  0.12856273  1
  C  C394  1  0.90997800  0.42607299  0.22643485  1
  H  H395  1  0.90497694  0.25092940  0.47276882  1
  H  H396  1  0.90286313  0.38285833  0.28360170  1
  C  C397  1  0.96819104  0.32112239  0.28960046  1
  C  C398  1  0.82922675  0.40001411  0.42151708  1
  C  C399  1  0.90957225  0.03644468  0.09182360  1
  H  H400  1  0.98876741  0.49299035  0.09064699  1
  H  H401  1  0.86129391  0.01326099  0.34278337  1
  H  H402  1  0.85714415  0.47279044  0.22836017  1
  N  N403  1  0.80247667  0.41780529  0.03071166  1
  C  C404  1  0.95923786  0.48715570  0.11973509  1
  N  N405  1  0.75863014  0.11938092  0.23916034  1
  N  N406  1  0.75250887  0.09188132  0.14683876  1
  C  C407  1  0.98424379  0.32626139  0.03020914  1
  C  C408  1  0.98398918  0.24943913  0.60791476  1
  H  H409  1  0.82320208  0.36629736  0.65870258  1
  N  N410  1  0.97514049  0.13742734  0.64659232  1
  C  C411  1  0.83576031  0.41353938  0.84144904  1
  C  C412  1  0.98477480  0.37044734  0.57687958  1
  N  N413  1  0.94067813  0.18722363  0.70131633  1
  C  C414  1  0.84307597  0.39237282  0.71534215  1
  C  C415  1  0.93761140  0.31707935  0.70903130  1
  H  H416  1  0.91614276  0.32545125  0.78076777  1
  Cu  Cu417  1  0.97091422  0.03876718  0.67835240  1
  C  C418  1  0.76091091  0.25888561  0.76700721  1
  C  C419  1  0.87791861  0.39903772  0.67059581  1
  C  C420  1  0.80458074  0.39540536  0.91492441  1
  H  H421  1  0.76346838  0.26727736  0.56663864  1
  C  C422  1  0.77656765  0.34896262  0.88021802  1
  C  C423  1  0.97208761  0.47185624  0.78391633  1
  C  C424  1  0.89809650  0.45803857  0.85787156  1
  H  H425  1  0.91869492  0.48250332  0.90977401  1
  H  H426  1  0.98936196  0.24715024  0.89142816  1
  C  C427  1  0.94398872  0.44881100  0.69218123  1
  C  C428  1  0.90393680  0.43759607  0.73906187  1
  N  N429  1  0.78167299  0.31559543  0.78370721  1
  C  C430  1  0.94993399  0.25110756  0.67755294  1
  C  C431  1  0.86352531  0.44572603  0.90974413  1
  O  O432  1  0.93259730  0.05742237  0.77395861  1
  C  C433  1  0.95463713  0.37214182  0.65542985  1
  H  H434  1  0.92930781  0.16714782  0.77564055  1
  C  C435  1  0.93804230  0.06126928  0.88997320  1
  C  C436  1  0.90719490  0.03710633  0.96887388  1
  H  H437  1  0.88626374  0.37546677  0.59022718  1
  C  C438  1  0.99330969  0.17738543  0.57844456  1
  O  O439  1  0.96463589  0.08434136  0.93239742  1
  C  C440  1  0.87578253  0.01104993  0.91670598  1
  H  H441  1  0.78852825  0.48896616  0.53152068  1
  H  H442  1  0.89639824  0.48892012  0.50550048  1
  H  H443  1  0.87508985  0.00912117  0.81631669  1
  C  C444  1  0.75492398  0.23896549  0.64472672  1
  H  H445  1  0.99788984  0.41367250  0.53777966  1
  C  C446  1  0.75012926  0.22212967  0.86922722  1
  H  H447  1  0.75673266  0.23872939  0.95937273  1
  H  H448  1  0.75449528  0.32851801  0.93170782  1
  C  C449  1  0.77086581  0.44687283  0.50259565  1
  H  H450  1  0.91303976  0.67665205  0.24664659  1
  H  H451  1  0.82029833  0.98020911  0.16193034  1
  C  C452  1  0.94373927  0.67408233  0.23741887  1
  N  N453  1  0.83821217  0.57820617  0.14475846  1
  O  O454  1  0.93135197  0.77992388  0.48772538  1
  Cu  Cu455  1  0.76862758  0.51751657  0.15192902  1
  H  H456  1  0.87787437  0.70278560  0.17046942  1
  C  C457  1  0.89701557  0.53216790  0.12079734  1
  O  O458  1  0.81285009  0.68096667  0.44671691  1
  C  C459  1  0.93547278  0.53701853  0.09121848  1
  C  C460  1  0.92816106  0.74012540  0.07697869  1
  Cu  Cu461  1  0.77938006  0.66241214  0.16576113  1
  N  N462  1  0.95511607  0.71044879  0.14458167  1
  C  C463  1  0.89021255  0.73336579  0.09831639  1
  H  H464  1  0.99385082  0.52507934  0.29101240  1
  C  C465  1  0.97039465  0.64264537  0.31060599  1
  N  N466  1  0.81066828  0.57754456  0.20444996  1
  O  O467  1  0.82088878  0.71947951  0.15260287  1
  C  C468  1  0.92807706  0.56533477  0.41771699  1
  N  N469  1  0.77003009  0.65868876  0.35393256  1
  C  C470  1  0.86870165  0.57653426  0.07268137  1
  C  C471  1  0.96197036  0.59928959  0.41493906  1
  H  H472  1  0.90960017  0.57142535  0.33969508  1
  H  H473  1  0.86940133  0.73922652  0.48718551  1
  C  C474  1  0.82663302  0.75431602  0.05652918  1
  C  C475  1  0.86637119  0.76727295  0.02374006  1
  C  C476  1  0.84551098  0.99326009  0.10935583  1
  H  H477  1  0.94377281  0.58315135  0.04183403  1
  C  C478  1  0.90891873  0.70950333  0.62667739  1
  Cu  Cu479  1  0.77808952  0.89850398  0.74797578  1
  C  C480  1  0.91523670  0.67585254  0.73327762  1
  C  C481  1  0.96728151  0.54124430  0.82005974  1
  C  C482  1  0.81403336  0.96429168  0.92445497  1
  H  H483  1  0.94066748  0.67941262  0.78429265  1
  C  C484  1  0.88465106  0.63937718  0.77879341  1
  O  O485  1  0.80472087  0.78199386  0.99567452  1
  Cu  Cu486  1  0.99558310  0.81464209  0.71794891  1
  O  O487  1  0.79034856  0.61390872  0.58543943  1
  C  C488  1  0.87531951  0.71158477  0.56609654  1
  H  H489  1  0.83010898  0.59806956  0.74912214  1
  C  C490  1  0.85028314  0.63504917  0.71921498  1
  O  O491  1  0.81298161  0.95573362  0.81299029  1
  C  C492  1  0.84798952  0.66996188  0.61479121  1
  H  H493  1  0.85803029  0.83090701  0.86769087  1
  C  C494  1  0.91587095  0.80875025  0.90707989  1
  H  H495  1  0.97083744  0.79570030  0.98859784  1
  C  C496  1  0.93964681  0.75353037  0.58181540  1
  O  O497  1  0.96437640  0.86726692  0.79506218  1
  O  O498  1  0.97177075  0.75100416  0.62491822  1
  C  C499  1  0.87862280  0.80781836  0.92981077  1
  C  C500  1  0.98329377  0.54185382  0.59384992  1
  N  N501  1  0.89127265  0.60588068  0.88214288  1
  O  O502  1  0.90836228  0.88114981  0.73987472  1
  C  C503  1  0.92928042  0.85387364  0.80865402  1
  H  H504  1  0.94430111  0.57287956  0.78607158  1
  H  H505  1  0.84063692  0.63737642  0.92414601  1
  C  C506  1  0.86474141  0.60942899  0.95820796  1
  C  C507  1  0.81368618  0.65989997  0.54710500  1
  C  C508  1  0.92211505  0.51824532  0.51047985  1
  C  C509  1  0.94185649  0.77881556  0.98198635  1
  C  C510  1  0.94944946  0.50346286  0.59390681  1
  O  O511  1  0.78637622  0.95051084  0.98833810  1
  C  C512  1  0.99257835  0.57492755  0.88885396  1
  H  H513  1  0.98630990  0.62521322  0.93193183  1
  C  C514  1  0.84639778  0.99011301  0.98606469  1
  C  C515  1  0.99024759  0.58933420  0.50323826  1
