# generated using pymatgen
data_ZnH11C18(NO2)2
_symmetry_space_group_name_H-M   'P 1'
_cell_length_a   19.83707767
_cell_length_b   22.65724019
_cell_length_c   14.50850367
_cell_angle_alpha   90.00000000
_cell_angle_beta   90.00000000
_cell_angle_gamma   90.00000000
_symmetry_Int_Tables_number   1
_chemical_formula_structural   ZnH11C18(NO2)2
_chemical_formula_sum   'Zn16 H176 C288 N32 O64'
_cell_volume   6520.89678996
_cell_formula_units_Z   16
loop_
 _symmetry_equiv_pos_site_id
 _symmetry_equiv_pos_as_xyz
  1  'x, y, z'
loop_
 _atom_site_type_symbol
 _atom_site_label
 _atom_site_symmetry_multiplicity
 _atom_site_fract_x
 _atom_site_fract_y
 _atom_site_fract_z
 _atom_site_occupancy
  H  H0  1  0.10425530  0.08330457  0.31828266  1
  H  H1  1  0.24650946  0.33417093  0.30987441  1
  H  H2  1  0.23555471  0.32668965  0.13566304  1
  H  H3  1  0.15198073  0.09869887  0.04913663  1
  C  C4  1  0.07902110  0.45567719  0.29945526  1
  C  C5  1  0.07019902  0.26763734  0.21842363  1
  C  C6  1  0.02550383  0.47355153  0.48345810  1
  C  C7  1  0.09150627  0.26723865  0.39656492  1
  H  H8  1  0.16034283  0.44937542  0.20111643  1
  H  H9  1  0.10763622  0.47835640  0.35516016  1
  C  C10  1  0.10537223  0.43975021  0.21546065  1
  H  H11  1  0.07644915  0.45632701  0.48416077  1
  C  C12  1  0.07816132  0.40407926  0.04768639  1
  H  H13  1  0.18058042  0.20890826  0.35942192  1
  C  C14  1  0.13579389  0.04753570  0.34908384  1
  H  H15  1  0.09678109  0.27170673  0.47298076  1
  H  H16  1  0.01747380  0.19534017  0.30421171  1
  C  C17  1  0.19724535  0.05857075  0.39393825  1
  H  H18  1  0.06821103  0.26016644  0.14265137  1
  C  C19  1  0.13327637  0.23655384  0.34046278  1
  C  C20  1  0.06121148  0.42111909  0.14536178  1
  C  C21  1  0.03669824  0.30346483  0.36338327  1
  H  H22  1  0.23008104  0.13171711  0.24460618  1
  N  N23  1  0.11993978  0.23443800  0.24869590  1
  H  H24  1  0.19148720  0.40453135  0.05965014  1
  N  N25  1  0.18695638  0.04145054  0.14300387  1
  C  C26  1  0.23085875  0.02945562  0.20329194  1
  C  C27  1  0.22540113  0.00967471  0.44296809  1
  O  O28  1  0.05674203  0.04217237  0.06852432  1
  C  C29  1  0.02519103  0.30594765  0.26650771  1
  C  C30  1  0.23204753  0.11981799  0.39571329  1
  H  H31  1  0.01695129  0.14552260  0.45728864  1
  N  N32  1  0.01097984  0.45275833  0.31705091  1
  H  H33  1  0.22762454  0.37017642  0.45670849  1
  C  C34  1  0.19634930  0.08923079  0.09109445  1
  C  C35  1  0.24867036  0.14907197  0.31122332  1
  H  H36  1  0.01567035  0.49873150  0.03984937  1
  C  C37  1  0.14538179  0.40150917  0.01162555  1
  C  C38  1  0.16119373  0.39619242  0.91849937  1
  H  H39  1  0.00967180  0.36262719  0.83357321  1
  Zn  Zn40  1  0.13094760  0.40389805  0.72954937  1
  C  C41  1  0.02156909  0.35012263  0.52134851  1
  O  O42  1  0.23516683  0.07844446  0.76387819  1
  C  C43  1  0.13393931  0.13855884  0.69481620  1
  C  C44  1  0.14025067  0.23868720  0.65260708  1
  O  O45  1  0.16133172  0.34717582  0.62514899  1
  O  O46  1  0.14249124  0.03682486  0.71291042  1
  C  C47  1  0.17379273  0.18943792  0.68394587  1
  N  N48  1  0.11129061  0.39160474  0.85597598  1
  C  C49  1  0.01675482  0.01148242  0.54994873  1
  C  C50  1  0.07182524  0.23939925  0.63427817  1
  C  C51  1  0.16948587  0.08333561  0.72480816  1
  C  C52  1  0.18352586  0.29680857  0.64239297  1
  C  C53  1  0.03568416  0.37932937  0.97925127  1
  C  C54  1  0.05076761  0.37429442  0.88533424  1
  H  H55  1  0.03993481  0.09163627  0.66579794  1
  O  O56  1  0.10202120  0.47614419  0.64544766  1
  H  H57  1  0.03973076  0.28081513  0.62073506  1
  C  C58  1  0.06670911  0.13272855  0.66706571  1
  H  H59  1  0.21455957  0.39659355  0.89665757  1
  H  H60  1  0.07771292  0.35627260  0.53149806  1
  C  C61  1  0.03509052  0.18661125  0.64165373  1
  H  H62  1  0.05020611  0.01995458  0.80761001  1
  C  C63  1  0.05885152  0.03260897  0.98333679  1
  O  O64  1  0.10840048  0.04063142  0.93831332  1
  O  O65  1  0.24283332  0.28984150  0.66516246  1
  C  C66  1  0.04393155  0.49896580  0.64894302  1
  H  H67  1  0.22819159  0.19314967  0.69766886  1
  C  C68  1  0.00001370  0.49617482  0.56530272  1
  C  C69  1  0.00050900  0.01033233  0.83537313  1
  H  H70  1  0.06175753  0.00232161  0.50965959  1
  H  H71  1  0.03772016  0.57480674  0.40134601  1
  H  H72  1  0.02456946  0.71176296  0.10474793  1
  C  C73  1  0.11988644  0.58620439  0.29290450  1
  C  C74  1  0.22634438  0.73624062  0.47446747  1
  H  H75  1  0.09025930  0.60354022  0.23394274  1
  H  H76  1  0.05952813  0.87914076  0.35053792  1
  N  N77  1  0.13210601  0.94521078  0.39947316  1
  C  C78  1  0.05366921  0.81450758  0.13440291  1
  C  C79  1  0.10561875  0.99251117  0.35639788  1
  C  C80  1  0.03692458  0.85512679  0.28999822  1
  C  C81  1  0.15278612  0.86318176  0.21056926  1
  C  C82  1  0.17482205  0.89118910  0.12517213  1
  C  C83  1  0.08087456  0.84184872  0.21621149  1
  C  C84  1  0.08936936  0.57197978  0.37874614  1
  C  C85  1  0.00281393  0.62556006  0.17156902  1
  H  H86  1  0.14939707  0.54872641  0.10912221  1
  H  H87  1  0.08719750  0.80062684  0.07764304  1
  H  H88  1  0.05219772  0.73429863  0.24361329  1
  H  H89  1  0.19813070  0.83970393  0.34557573  1
  C  C90  1  0.02316109  0.63795324  0.00652017  1
  H  H91  1  0.05614774  0.97977529  0.33347505  1
  H  H92  1  0.10728837  0.67970483  0.45838364  1
  C  C93  1  0.20286802  0.56247932  0.11562509  1
  C  C94  1  0.20570654  0.85888557  0.27610880  1
  H  H95  1  0.20316695  0.67297074  0.36454205  1
  C  C96  1  0.19298869  0.54964628  0.44532890  1
  C  C97  1  0.19100934  0.57801595  0.28523635  1
  C  C98  1  0.18769949  0.95628616  0.44780509  1
  H  H99  1  0.13609751  0.90363582  0.07546938  1
  C  C100  1  0.02188266  0.70653732  0.29097076  1
  C  C101  1  0.23284754  0.57963168  0.19942207  1
  N  N102  1  0.12714835  0.55603877  0.45061832  1
  H  H103  1  0.02693934  0.77068949  0.40760062  1
  C  C104  1  0.23577320  0.70914030  0.38480851  1
  H  H105  1  0.21106156  0.99302979  0.24629086  1
  C  C106  1  0.22731588  0.55690269  0.36349324  1
  C  C107  1  0.00983676  0.72931849  0.38011932  1
  C  C108  1  0.23961175  0.56759862  0.03463577  1
  C  C109  1  0.01635098  0.66291636  0.09569595  1
  H  H110  1  0.20053049  0.91515319  0.48202529  1
  C  C111  1  0.24276623  0.90351948  0.10934019  1
  H  H112  1  0.00339198  0.53115376  0.21244493  1
  C  C113  1  0.01523178  0.54450268  0.06313459  1
  C  C114  1  0.00732381  0.56228176  0.15596198  1
  H  H115  1  0.22707586  0.55471166  0.96545838  1
  O  O116  1  0.02388761  0.86641131  0.65721009  1
  N  N117  1  0.12536356  0.59718359  0.82394722  1
  C  C118  1  0.15192238  0.60017211  0.74208429  1
  H  H119  1  0.12111997  0.57449068  0.69441643  1
  C  C120  1  0.11998282  0.73640802  0.69952108  1
  H  H121  1  0.20926247  0.77953768  0.65892629  1
  C  C122  1  0.06957417  0.67138316  0.59676761  1
  C  C123  1  0.20651001  0.63623135  0.71626747  1
  O  O124  1  0.13498942  0.86861160  0.59787550  1
  H  H125  1  0.04267981  0.96842809  0.68493645  1
  H  H126  1  0.03930210  0.77629819  0.80795702  1
  C  C127  1  0.15781295  0.62773611  0.89002184  1
  C  C128  1  0.17592519  0.72234733  0.54851391  1
  H  H129  1  0.11583317  0.75718127  0.76787847  1
  N  N130  1  0.06558595  0.70057421  0.67817443  1
  C  C131  1  0.17145836  0.74789866  0.64127185  1
  Zn  Zn132  1  0.04067325  0.54607393  0.86227274  1
  C  C133  1  0.08051603  0.86739388  0.62585776  1
  C  C134  1  0.23465814  0.67461671  0.78490834  1
  C  C135  1  0.11922653  0.68601117  0.53167061  1
  H  H136  1  0.22881029  0.64091086  0.65126831  1
  H  H137  1  0.13248125  0.62157323  0.95495804  1
  C  C138  1  0.00541132  0.69605613  0.73508544  1
  C  C139  1  0.20590083  0.67109394  0.87442856  1
  H  H140  1  0.22337421  0.69946620  0.93207127  1
  H  H141  1  0.04162835  0.78778700  0.52524367  1
  H  H142  1  0.02901263  0.66267020  0.93855640  1
  H  H143  1  0.21242918  0.53425667  0.51282462  1
  O  O144  1  0.02043923  0.52584619  0.71751952  1
  H  H145  1  0.02888906  0.63875978  0.58570793  1
  N  N146  1  0.02426321  0.58016413  0.99114424  1
  C  C147  1  0.00588859  0.99248796  0.63968725  1
  C  C148  1  0.41926246  0.34059582  0.48899978  1
  C  C149  1  0.45969463  0.11828453  0.39341826  1
  C  C150  1  0.26202192  0.14128043  0.47897032  1
  C  C151  1  0.28957310  0.19988071  0.31134115  1
  H  H152  1  0.37013734  0.27768108  0.24183493  1
  C  C153  1  0.38219292  0.29499829  0.31106020  1
  C  C154  1  0.48463420  0.17341444  0.18150787  1
  N  N155  1  0.31202462  0.22355456  0.39337671  1
  C  C156  1  0.31491282  0.45858922  0.15419593  1
  C  C157  1  0.30524556  0.43132202  0.40700006  1
  C  C158  1  0.47692478  0.35762843  0.24445248  1
  C  C159  1  0.37648034  0.29527136  0.48337969  1
  H  H160  1  0.38658037  0.18829892  0.24005243  1
  H  H161  1  0.33115861  0.48675891  0.09677875  1
  C  C162  1  0.43667386  0.08296270  0.08336313  1
  C  C163  1  0.38887766  0.11620689  0.13267780  1
  C  C164  1  0.41961523  0.02245794  0.36283228  1
  C  C165  1  0.25963344  0.11751904  0.08615716  1
  C  C166  1  0.31475441  0.09474931  0.13746051  1
  N  N167  1  0.29592938  0.40390378  0.11781719  1
  H  H168  1  0.29851956  0.22631707  0.25259737  1
  C  C169  1  0.35698070  0.27229469  0.39299870  1
  H  H170  1  0.48554425  0.40125550  0.41445813  1
  C  C171  1  0.41606816  0.16086100  0.19022620  1
  C  C172  1  0.29412398  0.42126029  0.30802781  1
  C  C173  1  0.31575664  0.46781933  0.24717155  1
  C  C174  1  0.45456516  0.07162500  0.32975617  1
  H  H175  1  0.29721685  0.29236551  0.04436400  1
  C  C176  1  0.43064016  0.34036927  0.32072155  1
  C  C177  1  0.29864038  0.04983515  0.20247804  1
  C  C178  1  0.44709784  0.36376461  0.40761480  1
  H  H179  1  0.44972949  0.22864618  0.43067734  1
  C  C180  1  0.39233083  0.02378307  0.45039611  1
  C  C181  1  0.34991279  0.47609122  0.44155024  1
  H  H182  1  0.33938325  0.03327004  0.24561535  1
  O  O183  1  0.46933872  0.34231490  0.16523628  1
  C  C184  1  0.30265676  0.19215292  0.47498901  1
  C  C185  1  0.25868210  0.36389918  0.17241210  1
  H  H186  1  0.26992601  0.15770938  0.04027184  1
  H  H187  1  0.47406629  0.07531671  0.26195227  1
  C  C188  1  0.26960050  0.39868334  0.47528303  1
  C  C189  1  0.26293369  0.36939677  0.26741603  1
  H  H190  1  0.27741685  0.01256903  0.46912884  1
  C  C191  1  0.30264094  0.38875716  0.02419355  1
  H  H192  1  0.41563383  0.04907415  0.04008639  1
  C  C193  1  0.43067653  0.12110889  0.48206619  1
  O  O194  1  0.34350881  0.02278384  0.63996832  1
  C  C195  1  0.30644147  0.24302094  0.88004759  1
  Zn  Zn196  1  0.33981906  0.46031894  0.74536191  1
  O  O197  1  0.29404368  0.20441741  0.93530403  1
  H  H198  1  0.32023556  0.48033174  0.96582235  1
  C  C199  1  0.36049151  0.48096641  0.53628043  1
  C  C200  1  0.44771643  0.35850873  0.58791143  1
  H  H201  1  0.44336253  0.15841000  0.52852668  1
  Zn  Zn202  1  0.30774849  0.14040143  0.77029341  1
  O  O203  1  0.48358444  0.40328561  0.60316186  1
  O  O204  1  0.36670142  0.11743570  0.64877928  1
  C  C205  1  0.39673123  0.07200660  0.51127627  1
  O  O206  1  0.42815705  0.32898115  0.65065608  1
  C  C207  1  0.36586451  0.07041856  0.60483415  1
  N  N208  1  0.32722866  0.44837941  0.59596041  1
  H  H209  1  0.33848375  0.20478982  0.53067107  1
  C  C210  1  0.32432160  0.40917036  0.86361045  1
  H  H211  1  0.36117167  0.27557359  0.54775913  1
  O  O212  1  0.31986211  0.22858449  0.79544184  1
  C  C213  1  0.31208399  0.30811989  0.90525462  1
  H  H214  1  0.33454362  0.33954082  0.76018519  1
  C  C215  1  0.32467498  0.35080545  0.83544660  1
  C  C216  1  0.31694994  0.43285103  0.95164524  1
  H  H217  1  0.26592251  0.10862506  0.53598648  1
  C  C218  1  0.28445490  0.40921085  0.56800854  1
  C  C219  1  0.44360798  0.00206532  0.81250676  1
  H  H220  1  0.25736760  0.38936165  0.62743097  1
  C  C221  1  0.30242524  0.32843163  0.99592426  1
  C  C222  1  0.46569141  0.79456986  0.12611885  1
  C  C223  1  0.42098623  0.96127686  0.32029248  1
  H  H224  1  0.38336061  0.62794806  0.10293941  1
  C  C225  1  0.33324293  0.61103678  0.11947708  1
  H  H226  1  0.37026824  0.50863655  0.39088658  1
  O  O227  1  0.40205535  0.91876804  0.36828055  1
  O  O228  1  0.47602564  0.85136900  0.10383198  1
  H  H229  1  0.28192854  0.54728190  0.36434908  1
  H  H230  1  0.45220054  0.68155910  0.20357788  1
  H  H231  1  0.36459783  0.83199261  0.44377275  1
  H  H232  1  0.32158042  0.86273202  0.28527658  1
  O  O233  1  0.45080650  0.61320590  0.44947529  1
  C  C234  1  0.47457369  0.69328594  0.34351587  1
  N  N235  1  0.29281344  0.89339581  0.16840831  1
  Zn  Zn236  1  0.39435353  0.90756461  0.13627497  1
  N  N237  1  0.30374191  0.58812297  0.04192022  1
  C  C238  1  0.45526990  0.62934659  0.36367356  1
  C  C239  1  0.32437653  0.79594648  0.43099131  1
  C  C240  1  0.30008387  0.60389762  0.20313311  1
  C  C241  1  0.47045636  0.71216491  0.25163998  1
  O  O242  1  0.44995481  0.95239079  0.24319479  1
  H  H243  1  0.32400728  0.61387675  0.26830653  1
  C  C244  1  0.27298164  0.86972686  0.24674886  1
  O  O245  1  0.43766148  0.59636533  0.30207839  1
  O  O246  1  0.43858810  0.76527365  0.06906836  1
  H  H247  1  0.25903671  0.92482893  0.04570367  1
  N  N248  1  0.33312286  0.77052869  0.35092505  1
  C  C249  1  0.48254223  0.77034298  0.22430968  1
  H  H250  1  0.41619557  0.54192035  0.07331718  1
  C  C251  1  0.27364703  0.78068397  0.49589435  1
  H  H252  1  0.47937751  0.97104981  0.03882323  1
  O  O253  1  0.35307351  0.95843601  0.01405566  1
  H  H254  1  0.34213180  0.50862425  0.27231352  1
  C  C255  1  0.49902657  0.72909890  0.41354517  1
  H  H256  1  0.29974153  0.71408059  0.25384129  1
  C  C257  1  0.28529606  0.73036471  0.32548207  1
  H  H258  1  0.37134831  0.98075899  0.47052425  1
  C  C259  1  0.33660784  0.73387897  0.84363612  1
  H  H260  1  0.28648721  0.58407236  0.83466485  1
  O  O261  1  0.33885796  0.58859151  0.65387643  1
  C  C262  1  0.39060282  0.55069903  0.79133710  1
  C  C263  1  0.49615683  0.77208027  0.72544167  1
  N  N264  1  0.42316887  0.76477072  0.73124364  1
  C  C265  1  0.38136920  0.74593626  0.66171460  1
  H  H266  1  0.42864541  0.77831501  0.87650732  1
  C  C267  1  0.34055111  0.57447944  0.85736961  1
  C  C268  1  0.34932353  0.58199221  0.96197195  1
  C  C269  1  0.29557883  0.70906170  0.76991967  1
  C  C270  1  0.32002042  0.71679446  0.67768026  1
  H  H271  1  0.47646006  0.96044786  0.64039161  1
  H  H272  1  0.40262896  0.75600884  0.59117336  1
  C  C273  1  0.41922264  0.55828683  0.99791052  1
  H  H274  1  0.32445137  0.73233134  0.91923845  1
  C  C275  1  0.39567218  0.76266440  0.81935039  1
  O  O276  1  0.44966724  0.58996895  0.65909344  1
  C  C277  1  0.39131476  0.58018658  0.69108363  1
  Zn  Zn278  1  0.43634093  0.61182747  0.89025466  1
  C  C279  1  0.34287620  0.88468102  0.64484798  1
  H  H280  1  0.49812736  0.70502191  0.61907976  1
  C  C281  1  0.45557403  0.52664619  0.83618190  1
  O  O282  1  0.39749635  0.87110948  0.62697705  1
  C  C283  1  0.47370715  0.53588424  0.93646691  1
  H  H284  1  0.26990697  0.79965456  0.56538308  1
  H  H285  1  0.28746072  0.70146475  0.62155737  1
  C  C286  1  0.36259835  0.96886552  0.93210743  1
  H  H287  1  0.39600941  0.51046085  0.57003184  1
  Zn  Zn288  1  0.27931130  0.99408762  0.74852859  1
  O  O289  1  0.28730724  0.89802154  0.67073984  1
  O  O290  1  0.31469105  0.96023430  0.87545269  1
  C  C291  1  0.43170814  0.98925970  0.90531735  1
  H  H292  1  0.40003214  0.99640179  0.76535081  1
  C  C293  1  0.48658894  0.98691609  0.96544905  1
  H  H294  1  0.48919438  0.50012674  0.78837955  1
  C  C295  1  0.68795573  0.07697440  0.40186473  1
  C  C296  1  0.57179217  0.14461654  0.33962257  1
  C  C297  1  0.61384306  0.24259077  0.35610787  1
  N  N298  1  0.51220326  0.16300506  0.37649843  1
  H  H299  1  0.56600733  0.09613729  0.32932628  1
  H  H300  1  0.63535200  0.44256332  0.26752521  1
  H  H301  1  0.54629420  0.30720882  0.41661752  1
  C  C302  1  0.60702147  0.48511227  0.44468877  1
  C  C303  1  0.62477685  0.04941749  0.42616231  1
  H  H304  1  0.65631241  0.09512571  0.15326945  1
  H  H305  1  0.50504369  0.21000262  0.22030345  1
  C  C306  1  0.59440882  0.16944715  0.10116365  1
  C  C307  1  0.65484923  0.14030502  0.12013128  1
  O  O308  1  0.60180207  0.43057093  0.44412213  1
  Zn  Zn309  1  0.56428851  0.40366287  0.11984618  1
  C  C310  1  0.67841139  0.33393800  0.38167317  1
  C  C311  1  0.66943867  0.28346497  0.32614741  1
  O  O312  1  0.67064204  0.43798879  0.10358541  1
  H  H313  1  0.64569202  0.34410454  0.44208317  1
  C  C314  1  0.55177088  0.25971535  0.39816910  1
  C  C315  1  0.62420567  0.18433366  0.32348356  1
  C  C316  1  0.65439229  0.48797434  0.27956756  1
  O  O317  1  0.52668466  0.38898388  0.26226142  1
  C  C318  1  0.64762443  0.25469120  0.03646124  1
  H  H319  1  0.66990284  0.17038582  0.28730684  1
  N  N320  1  0.52757164  0.14387637  0.12383422  1
  C  C321  1  0.71778751  0.06759602  0.31735859  1
  N  N322  1  0.69040489  0.03316498  0.25275054  1
  C  C323  1  0.59044517  0.22716549  0.06851156  1
  C  C324  1  0.70834352  0.22309444  0.03916131  1
  C  C325  1  0.50479254  0.09706770  0.07763448  1
  C  C326  1  0.69509966  0.48893812  0.11737405  1
  C  C327  1  0.71241722  0.16806987  0.08281472  1
  H  H328  1  0.54159296  0.24782445  0.05381662  1
  C  C329  1  0.71671259  0.27615880  0.25227417  1
  O  O330  1  0.52149094  0.48045592  0.05931107  1
  C  C331  1  0.50115049  0.21959653  0.40478327  1
  H  H332  1  0.71223668  0.10869582  0.44787059  1
  O  O333  1  0.58584830  0.34082345  0.00130836  1
  C  C334  1  0.63401199  0.00397782  0.27329378  1
  Zn  Zn335  1  0.73510496  0.01086293  0.12031054  1
  H  H336  1  0.74079373  0.41657994  0.39270165  1
  H  H337  1  0.70863763  0.21822290  0.49892264  1
  C  C338  1  0.73070754  0.37373375  0.35732604  1
  H  H339  1  0.70793910  0.24134345  0.19681370  1
  C  C340  1  0.59770703  0.01243327  0.35367961  1
  H  H341  1  0.54261821  0.07513531  0.03489456  1
  O  O342  1  0.65699540  0.02119792  0.01502742  1
  C  C343  1  0.60135755  0.08447984  0.59135478  1
  O  O344  1  0.66013373  0.37835967  0.68303781  1
  O  O345  1  0.58043759  0.49946527  0.92998760  1
  C  C346  1  0.57180429  0.07557635  0.67807885  1
  O  O347  1  0.66584494  0.43374414  0.80571171  1
  H  H348  1  0.63342428  0.23063185  0.82098934  1
  O  O349  1  0.69265844  0.34383260  0.96201449  1
  C  C350  1  0.69584626  0.21794883  0.57274243  1
  C  C351  1  0.72462595  0.21502005  0.73279778  1
  C  C352  1  0.69401232  0.40476419  0.74702372  1
  C  C353  1  0.58820345  0.04837992  0.51362982  1
  H  H354  1  0.57837250  0.10354437  0.74287819  1
  H  H355  1  0.61125994  0.03934595  0.82535055  1
  N  N356  1  0.60851032  0.22642754  0.69268566  1
  C  C357  1  0.65676264  0.22387693  0.75178096  1
  C  C358  1  0.56263467  0.02292252  0.85189817  1
  Zn  Zn359  1  0.59139557  0.41106863  0.59107253  1
  Zn  Zn360  1  0.66272196  0.43712849  0.94610558  1
  H  H361  1  0.64055861  0.11644824  0.57974294  1
  C  C362  1  0.62974679  0.22679690  0.60556982  1
  N  N363  1  0.53222820  0.02819099  0.69361019  1
  C  C364  1  0.50842983  0.01964257  0.79014088  1
  C  C365  1  0.72736732  0.02510598  0.65764090  1
  N  N366  1  0.72102956  0.01608922  0.74711361  1
  C  C367  1  0.53631467  0.00588974  0.53227224  1
  C  C368  1  0.74783876  0.20755968  0.64017232  1
  C  C369  1  0.64279712  0.31700921  0.99942484  1
  H  H370  1  0.58182761  0.23229309  0.56527825  1
  C  C371  1  0.59586888  0.87116803  0.39747445  1
  C  C372  1  0.66823206  0.56954884  0.38519462  1
  H  H373  1  0.51914307  0.85298540  0.27005256  1
  H  H374  1  0.63349383  0.67986867  0.36987330  1
  C  C375  1  0.70793494  0.75195239  0.40887061  1
  H  H376  1  0.70387068  0.86104314  0.34696360  1
  C  C377  1  0.68366822  0.69713715  0.37637740  1
  C  C378  1  0.63599489  0.90362813  0.45728738  1
  H  H379  1  0.54433855  0.99615798  0.35378718  1
  H  H380  1  0.66609573  0.94196852  0.43284514  1
  O  O381  1  0.72174172  0.51561653  0.04987594  1
  C  C382  1  0.71046578  0.57621471  0.22733702  1
  O  O383  1  0.58969711  0.95979758  0.07695742  1
  H  H384  1  0.66730816  0.58822787  0.45639621  1
  H  H385  1  0.68947321  0.75275290  0.11785716  1
  C  C386  1  0.51848505  0.78716532  0.38188603  1
  C  C387  1  0.69775467  0.60112685  0.31312643  1
  O  O388  1  0.64324597  0.86048494  0.17955956  1
  H  H389  1  0.59283115  0.87419294  0.32166569  1
  Zn  Zn390  1  0.58156710  0.86434502  0.06818033  1
  N  N391  1  0.72932348  0.65823145  0.34335685  1
  C  C392  1  0.70488467  0.87038503  0.18408921  1
  C  C393  1  0.64673326  0.51251296  0.36657401  1
  N  N394  1  0.55739484  0.82754267  0.43557120  1
  C  C395  1  0.68679190  0.51894233  0.20826431  1
  O  O396  1  0.72664750  0.92169814  0.20444271  1
  H  H397  1  0.61940478  0.97374919  0.21553610  1
  H  H398  1  0.67243473  0.78292865  0.44063715  1
  C  C399  1  0.74133114  0.76638731  0.13479066  1
  H  H400  1  0.73824552  0.60331164  0.17438896  1
  H  H401  1  0.73609561  0.97773537  0.36249565  1
  O  O402  1  0.72929297  0.65869949  0.04904096  1
  H  H403  1  0.50780241  0.71472271  0.48645568  1
  C  C404  1  0.50569599  0.80781544  0.29158686  1
  C  C405  1  0.60565153  0.99149324  0.01193002  1
  H  H406  1  0.51998420  0.97417931  0.47755081  1
  C  C407  1  0.63520701  0.89179273  0.55289943  1
  C  C408  1  0.62739447  0.72941330  0.76688501  1
  C  C409  1  0.59920794  0.77734971  0.81170370  1
  C  C410  1  0.61694330  0.65441457  0.63733718  1
  H  H411  1  0.52153601  0.77935230  0.53965926  1
  H  H412  1  0.67899435  0.71226840  0.78078928  1
  O  O413  1  0.66702424  0.62883859  0.67138567  1
  O  O414  1  0.60123290  0.84888588  0.93146589  1
  C  C415  1  0.55410787  0.81520214  0.52959535  1
  C  C416  1  0.67225470  0.93164923  0.61843697  1
  H  H417  1  0.63687125  0.88903783  0.74207546  1
  C  C418  1  0.63535763  0.80853192  0.88766834  1
  O  O419  1  0.58855119  0.51087806  0.51676828  1
  C  C420  1  0.60281654  0.83871081  0.58624866  1
  O  O421  1  0.69175703  0.79307519  0.91005162  1
  C  C422  1  0.58867316  0.70459887  0.69648971  1
  H  H423  1  0.61751517  0.81935548  0.65360838  1
  C  C424  1  0.52632397  0.72414323  0.67514170  1
  C  C425  1  0.66689407  0.92473639  0.71587225  1
  O  O426  1  0.58930204  0.64306388  0.56354010  1
  C  C427  1  0.53481338  0.79971880  0.79038820  1
  Zn  Zn428  1  0.51778627  0.57420798  0.53507391  1
  C  C429  1  0.70011825  0.98676184  0.59214302  1
  C  C430  1  0.51038829  0.99537324  0.62034691  1
  H  H431  1  0.69241220  0.96307978  0.85523761  1
  C  C432  1  0.69671893  0.96475162  0.77625004  1
  H  H433  1  0.51232587  0.83901978  0.83017112  1
  H  H434  1  0.70451028  0.99982968  0.51874744  1
  C  C435  1  0.52928891  0.50550643  0.98087949  1
  C  C436  1  0.55311517  0.99876590  0.93952916  1
  C  C437  1  0.96630842  0.43897921  0.24714970  1
  O  O438  1  0.82732717  0.17022751  0.05252469  1
  C  C439  1  0.78190287  0.14170628  0.08937169  1
  C  C440  1  0.99045927  0.42572348  0.16090171  1
  C  C441  1  0.76767371  0.31822134  0.23756732  1
  O  O442  1  0.79498818  0.09303333  0.13068662  1
  H  H443  1  0.97757526  0.32537909  0.23510763  1
  H  H444  1  0.76548104  0.08831299  0.29245676  1
  H  H445  1  0.95463757  0.41175398  0.10635911  1
  H  H446  1  0.91365782  0.44416782  0.26861418  1
  C  C447  1  0.94588714  0.03715757  0.31889286  1
  C  C448  1  0.98331477  0.47488504  0.40385230  1
  N  N449  1  0.77335033  0.36641491  0.28830405  1
  H  H450  1  0.75406698  0.24659727  0.01338704  1
  H  H451  1  0.89829788  0.32912528  0.36011570  1
  H  H452  1  0.80755632  0.31278680  0.19018227  1
  C  C453  1  0.95865274  0.07091087  0.24101499  1
  C  C454  1  0.92177495  0.33729317  0.42480549  1
  H  H455  1  0.98443651  0.36840798  0.00708642  1
  H  H456  1  0.88354021  0.49559227  0.35192607  1
  C  C457  1  0.99938212  0.14929970  0.31716138  1
  C  C458  1  0.91613887  0.49402163  0.41098453  1
  C  C459  1  0.99535090  0.11895549  0.40059172  1
  C  C460  1  0.99212810  0.33098409  0.43619459  1
  C  C461  1  0.96554452  0.06104771  0.40423660  1
  H  H462  1  0.95306230  0.05927209  0.16540060  1
  N  N463  1  0.98805773  0.12324835  0.23735787  1
  H  H464  1  0.82669545  0.37307646  0.48679216  1
  C  C465  1  0.88236090  0.36441501  0.49521647  1
  H  H466  1  0.95589640  0.12089054  0.72063744  1
  C  C467  1  0.77099898  0.40625859  0.74339347  1
  H  H468  1  0.77950887  0.45086414  0.87388139  1
  C  C469  1  0.89167059  0.02221100  0.63668890  1
  C  C470  1  0.91353477  0.42155302  0.73444081  1
  C  C471  1  0.87564036  0.44445462  0.80262802  1
  C  C472  1  0.92569785  0.14682562  0.67294533  1
  N  N473  1  0.96266465  0.18312272  0.61791125  1
  H  H474  1  0.83058644  0.12125449  0.71794167  1
  C  C475  1  0.85744134  0.15161954  0.67421756  1
  H  H476  1  0.85584617  0.06136141  0.50757557  1
  C  C477  1  0.89573293  0.04001875  0.54679371  1
  H  H478  1  0.75210625  0.06772720  0.63705272  1
  C  C479  1  0.90770620  0.47446686  0.88685612  1
  O  O480  1  0.87069271  0.48491146  0.95555835  1
  O  O481  1  0.97109808  0.47810808  0.89283948  1
  H  H482  1  0.85122949  0.02266978  0.68961479  1
  C  C483  1  0.80590635  0.43403720  0.81279925  1
  C  C484  1  0.92814814  0.21864594  0.55711124  1
  N  N485  1  0.91114631  0.37569764  0.57791345  1
  C  C486  1  0.80688819  0.38536842  0.66523882  1
  H  H487  1  0.96898150  0.24217779  0.51548788  1
  C  C488  1  0.87587436  0.39461818  0.65990850  1
  C  C489  1  0.86001928  0.22855739  0.55855080  1
  H  H490  1  0.96770957  0.42668937  0.73101337  1
  C  C491  1  0.98115919  0.37105621  0.58944861  1
  H  H492  1  0.78280140  0.36750326  0.60552447  1
  C  C493  1  0.82111875  0.19509594  0.62138071  1
  H  H494  1  0.75877586  0.22042657  0.79127630  1
  H  H495  1  0.83553017  0.26427801  0.51793363  1
  N  N496  1  0.94497343  0.00233537  0.68385379  1
  C  C497  1  0.99487127  0.01154301  0.93126402  1
  H  H498  1  0.99831094  0.39061854  0.65250493  1
  C  C499  1  0.95981143  0.03596026  0.50348115  1
  H  H500  1  0.90306632  0.71693767  0.14717965  1
  C  C501  1  0.79571839  0.67126006  0.33668285  1
  C  C502  1  0.96614078  0.84589742  0.28433022  1
  N  N503  1  0.81776823  0.95624877  0.43724426  1
  O  O504  1  0.83344449  0.63465773  0.08580497  1
  C  C505  1  0.77595478  0.76932639  0.40449308  1
  C  C506  1  0.75537621  0.82107256  0.17016151  1
  H  H507  1  0.92955081  0.85997340  0.33505144  1
  H  H508  1  0.82071081  0.63314266  0.30221464  1
  C  C509  1  0.89696885  0.52036163  0.49478798  1
  C  C510  1  0.86276397  0.74887348  0.15512296  1
  C  C511  1  0.93856034  0.64912362  0.42121947  1
  C  C512  1  0.87449519  0.80498487  0.19605919  1
  C  C513  1  0.99106390  0.65263899  0.26431571  1
  C  C514  1  0.85200651  0.85777500  0.46868639  1
  C  C515  1  0.79864710  0.73106617  0.12473006  1
  H  H516  1  0.90622221  0.62871602  0.47295592  1
  H  H517  1  0.92407995  0.58442735  0.31738995  1
  H  H518  1  0.82750119  0.88970860  0.22167574  1
  O  O519  1  0.81774165  0.96020587  0.05466063  1
  C  C520  1  0.75022547  0.87730333  0.38192032  1
  N  N521  1  0.94459711  0.81652467  0.20908839  1
  C  C522  1  0.76570462  0.93811937  0.38715559  1
  C  C523  1  0.95016846  0.62548333  0.33472181  1
  C  C524  1  0.81923452  0.84247463  0.19831515  1
  N  N525  1  0.96473351  0.70442340  0.44196225  1
  C  C526  1  0.78513939  0.67207661  0.08076202  1
  H  H527  1  0.95471394  0.77958749  0.08153471  1
  H  H528  1  0.87516270  0.73345715  0.35753842  1
  C  C529  1  0.82003515  0.72412092  0.36949958  1
  C  C530  1  0.79383001  0.83641882  0.42359352  1
  C  C531  1  0.98481493  0.80247732  0.13394860  1
  C  C532  1  0.86252506  0.91883635  0.47105251  1
  C  C533  1  0.81996655  0.54685399  0.49362196  1
  O  O534  1  0.77159267  0.51419090  0.48466269  1
  H  H535  1  0.92428384  0.99107284  0.31465645  1
  H  H536  1  0.93582240  0.99580343  0.05523361  1
  H  H537  1  0.88820949  0.82527126  0.49670571  1
  Zn  Zn538  1  0.81701869  0.55789000  0.00226665  1
  H  H539  1  0.96195855  0.61160425  0.68786739  1
  C  C540  1  0.84833512  0.60525832  0.80486071  1
  C  C541  1  0.95764246  0.64961760  0.73484693  1
  C  C542  1  0.90436925  0.65266103  0.79565713  1
  Zn  Zn543  1  0.76959406  0.63193109  0.63594292  1
  C  C544  1  0.94377871  0.99327923  0.78372833  1
  Zn  Zn545  1  0.79157996  0.82905986  0.87834153  1
  C  C546  1  0.89404856  0.69854026  0.85845943  1
  C  C547  1  0.87952293  0.73177282  0.55864707  1
  C  C548  1  0.79308575  0.76679307  0.67593931  1
  O  O549  1  0.96447336  0.84347535  0.91417621  1
  C  C550  1  0.93785269  0.74482489  0.85079670  1
  O  O551  1  0.75625304  0.72421964  0.65849110  1
  C  C552  1  0.94542913  0.73883257  0.51978618  1
  C  C553  1  0.93446994  0.52341700  0.57097869  1
  C  C554  1  0.92952514  0.80099601  0.91717239  1
  O  O555  1  0.78033942  0.80589585  0.73261373  1
  C  C556  1  0.90658811  0.81499522  0.65659335  1
  O  O557  1  0.87179400  0.80082379  0.95526284  1
  H  H558  1  0.91294133  0.54038640  0.63491822  1
  O  O559  1  0.82877881  0.58458682  0.73060568  1
  H  H560  1  0.89083325  0.84800824  0.70883584  1
  C  C561  1  0.86084544  0.76907752  0.62896403  1
  C  C562  1  0.82378209  0.94936932  0.96942608  1
  O  O563  1  0.78456929  0.91984801  0.92067064  1
  O  O564  1  0.81008549  0.60416780  0.87238790  1
  H  H565  1  0.83535955  0.95671004  0.79553656  1
  H  H566  1  0.85399114  0.69818062  0.91602098  1
  H  H567  1  0.84425393  0.69671323  0.52844591  1
  C  C568  1  0.97123008  0.81937948  0.62630273  1
  C  C569  1  0.88596211  0.97454339  0.92568282  1
  C  C570  1  0.88553451  0.97142361  0.82882500  1
  O  O571  1  0.80816038  0.60136772  0.51435515  1
  C  C572  1  0.93801927  0.99604086  0.98029768  1
  C  C573  1  0.99792464  0.74238208  0.80000269  1
  C  C574  1  0.99116880  0.78177860  0.55431105  1
  H  H575  1  0.90996307  0.93520626  0.50419257  1
