# generated using pymatgen
data_Cu3H22(C21O8)2
_symmetry_space_group_name_H-M   'P 1'
_cell_length_a   49.49008494
_cell_length_b   23.38535323
_cell_length_c   7.67674839
_cell_angle_alpha   90.00000000
_cell_angle_beta   90.00000000
_cell_angle_gamma   90.00000000
_symmetry_Int_Tables_number   1
_chemical_formula_structural   Cu3H22(C21O8)2
_chemical_formula_sum   'Cu24 H176 C336 O128'
_cell_volume   8884.63191850
_cell_formula_units_Z   8
loop_
 _symmetry_equiv_pos_site_id
 _symmetry_equiv_pos_as_xyz
  1  'x, y, z'
loop_
 _atom_site_type_symbol
 _atom_site_label
 _atom_site_symmetry_multiplicity
 _atom_site_fract_x
 _atom_site_fract_y
 _atom_site_fract_z
 _atom_site_occupancy
  C  C0  1  0.02403013  0.04290240  0.19537756  1
  C  C1  1  0.13215586  0.18252079  0.40598202  1
  H  H2  1  0.07842643  0.20994475  0.42745652  1
  O  O3  1  0.15524441  0.15997742  0.39797294  1
  H  H4  1  0.03445921  0.08469878  0.20541987  1
  C  C5  1  0.10937227  0.14251353  0.41874018  1
  C  C6  1  0.11449233  0.08550082  0.40053033  1
  C  C7  1  0.06068033  0.12519691  0.42859790  1
  O  O8  1  0.03073289  0.13772036  0.43764290  1
  C  C9  1  0.06751414  0.06875893  0.42516411  1
  C  C10  1  0.08180770  0.16248796  0.43588034  1
  C  C11  1  0.00000461  0.04554273  0.28665492  1
  O  O12  1  0.12987815  0.23629111  0.41584494  1
  H  H13  1  0.13620975  0.07012568  0.39645366  1
  H  H14  1  0.05150997  0.03679245  0.43302471  1
  C  C15  1  0.09355337  0.04404041  0.41349373  1
  C  C16  1  0.03292200  0.20092804  0.00560139  1
  O  O17  1  0.06432336  0.20141684  0.00280928  1
  H  H18  1  0.04349254  0.10282369  0.00708972  1
  C  C19  1  0.01735533  0.23506757  0.11228523  1
  C  C20  1  0.06406483  0.09838700  0.00626921  1
  C  C21  1  0.07460266  0.04395492  0.00331459  1
  Cu  Cu22  1  0.17675361  0.16372063  0.19546195  1
  H  H23  1  0.25712229  0.01349440  0.28595407  1
  C  C24  1  0.28012437  0.20396117  0.07816190  1
  C  C25  1  0.25455642  0.09890322  0.16549296  1
  H  H26  1  0.26949374  0.11986481  0.24871909  1
  C  C27  1  0.29828241  0.16306327  0.03012191  1
  C  C28  1  0.24780509  0.04238767  0.18968560  1
  C  C29  1  0.24354955  0.13897136  0.04740049  1
  O  O30  1  0.25192541  0.19605726  0.04097965  1
  C  C31  1  0.32586784  0.16010025  0.05458130  1
  C  C32  1  0.22861087  0.02167671  0.06817309  1
  C  C33  1  0.31263339  0.00295421  0.20938608  1
  H  H34  1  0.30862874  0.04615999  0.17676798  1
  C  C35  1  0.29167829  0.24771372  0.17594442  1
  H  H36  1  0.17768101  0.03456289  0.45631121  1
  H  H37  1  0.20160867  0.12418225  0.48624139  1
  C  C38  1  0.19887456  0.03401732  0.48964947  1
  H  H39  1  0.29322491  0.05229366  0.42815230  1
  O  O40  1  0.17840286  0.23473441  0.09032278  1
  C  C41  1  0.30227912  0.09335637  0.47577141  1
  C  C42  1  0.33072779  0.09200298  0.46803916  1
  O  O43  1  0.34584905  0.04382887  0.41070793  1
  C  C44  1  0.43102140  0.22962790  0.14905142  1
  C  C45  1  0.48045362  0.21985607  0.11897509  1
  H  H46  1  0.45895865  0.12810305  0.42536352  1
  C  C47  1  0.33632708  0.20873738  0.13186113  1
  C  C48  1  0.48248586  0.17555795  0.24239819  1
  C  C49  1  0.45565498  0.24295796  0.06759917  1
  H  H50  1  0.35703455  0.21321718  0.18323413  1
  C  C51  1  0.43418125  0.19096888  0.29151339  1
  H  H52  1  0.41695708  0.18573490  0.37455032  1
  C  C53  1  0.45892613  0.16348536  0.33212074  1
  H  H54  1  0.49732872  0.23333598  0.04764756  1
  H  H55  1  0.05681477  0.22209429  0.66358362  1
  H  H56  1  0.02867854  0.14377555  0.78882468  1
  C  C57  1  0.03614700  0.22774856  0.62176913  1
  C  C58  1  0.01765237  0.16750746  0.89188697  1
  H  H59  1  0.11421479  0.00241541  0.98529903  1
  C  C60  1  0.07811234  0.15261303  0.99677579  1
  C  C61  1  0.10598749  0.14731285  0.99152568  1
  H  H62  1  0.11791795  0.18532547  0.99062925  1
  C  C63  1  0.11813015  0.09349412  0.98571874  1
  C  C64  1  0.10272192  0.04264716  0.98307448  1
  C  C65  1  0.14736823  0.08256129  0.97245293  1
  O  O66  1  0.15479381  0.03500514  0.94343581  1
  O  O67  1  0.16468824  0.12627470  0.98762567  1
  C  C68  1  0.02217937  0.18603186  0.52211668  1
  H  H69  1  0.28865446  0.21337228  0.66520942  1
  C  C70  1  0.30019747  0.17953575  0.59922905  1
  C  C71  1  0.28495382  0.13268950  0.54359073  1
  O  O72  1  0.25544509  0.13748677  0.53728164  1
  H  H73  1  0.27353599  0.03451719  0.61563062  1
  C  C74  1  0.25176276  0.03337013  0.56744452  1
  C  C75  1  0.24154528  0.08819782  0.54008479  1
  C  C76  1  0.21302692  0.08410134  0.51074350  1
  H  H77  1  0.19952692  0.03978873  0.86303904  1
  H  H78  1  0.21303288  0.14388237  0.85108643  1
  C  C79  1  0.22280435  0.11699132  0.94627302  1
  C  C80  1  0.21586567  0.05812102  0.94775721  1
  C  C81  1  0.32855062  0.18534389  0.58598546  1
  H  H82  1  0.29091710  0.12666813  0.94985465  1
  C  C83  1  0.36434065  0.10685282  0.93360208  1
  O  O84  1  0.36439148  0.24573620  0.63962833  1
  O  O85  1  0.45509493  0.15739707  0.72637560  1
  O  O86  1  0.33831479  0.10806069  0.98990071  1
  C  C87  1  0.41690255  0.10469094  0.79398652  1
  C  C88  1  0.33976299  0.23651099  0.67033902  1
  C  C89  1  0.40518103  0.15627428  0.85558240  1
  C  C90  1  0.37892594  0.15864791  0.91385176  1
  O  O91  1  0.45491451  0.06317660  0.66107078  1
  H  H92  1  0.37119727  0.20131592  0.95072795  1
  H  H93  1  0.41814685  0.19454723  0.84089821  1
  H  H94  1  0.36546628  0.01860836  0.89626095  1
  C  C95  1  0.34419467  0.14038792  0.51644808  1
  C  C96  1  0.44440411  0.11140017  0.72199879  1
  H  H97  1  0.40966863  0.01055266  0.76154352  1
  C  C98  1  0.40260655  0.05198645  0.80053184  1
  H  H99  1  0.36649335  0.14232675  0.51668024  1
  C  C100  1  0.37771114  0.05601844  0.88412068  1
  Cu  Cu101  1  0.48153649  0.02199644  0.78580200  1
  H  H102  1  0.02003917  0.39594512  0.32297702  1
  H  H103  1  0.10849289  0.48031379  0.28812049  1
  C  C104  1  0.03056874  0.47625656  0.38197867  1
  O  O105  1  0.05618917  0.47553195  0.31348025  1
  C  C106  1  0.01064428  0.43293248  0.38719131  1
  H  H107  1  0.02707910  0.26224010  0.20544752  1
  O  O108  1  0.11768236  0.39201702  0.47947878  1
  C  C109  1  0.32015173  0.25317636  0.20278023  1
  O  O110  1  0.18140772  0.27508316  0.35229950  1
  C  C111  1  0.18632115  0.27542083  0.18828389  1
  H  H112  1  0.19980905  0.37778361  0.36953260  1
  C  C113  1  0.22144528  0.41269139  0.14041554  1
  C  C114  1  0.20732776  0.37194670  0.22783874  1
  H  H115  1  0.30423704  0.42268893  0.32410304  1
  C  C116  1  0.20039623  0.32424326  0.11816802  1
  H  H117  1  0.27767469  0.28270787  0.21665823  1
  O  O118  1  0.22551072  0.46998439  0.25150180  1
  C  C119  1  0.28891427  0.43141361  0.42602236  1
  C  C120  1  0.33246121  0.29595683  0.30782776  1
  C  C121  1  0.26781554  0.49937424  0.10015118  1
  H  H122  1  0.26774507  0.35385456  0.43094115  1
  O  O123  1  0.31892263  0.33195440  0.39668279  1
  H  H124  1  0.26913384  0.46075262  0.01660883  1
  C  C125  1  0.26852580  0.39469277  0.49313604  1
  H  H126  1  0.49392501  0.33739638  0.44977669  1
  O  O127  1  0.44778650  0.44286031  0.04290250  1
  H  H128  1  0.44606956  0.33351131  0.05966678  1
  C  C129  1  0.49470086  0.45802198  0.12735297  1
  O  O130  1  0.40520416  0.25263180  0.08213324  1
  C  C131  1  0.42346207  0.40567959  0.02787320  1
  C  C132  1  0.49682609  0.37056771  0.34372720  1
  C  C133  1  0.47059799  0.42630999  0.13288035  1
  H  H134  1  0.45488692  0.35935729  0.28454839  1
  C  C135  1  0.37883097  0.33773236  0.00020121  1
  C  C136  1  0.47343090  0.38135081  0.24918471  1
  O  O137  1  0.38117289  0.39062489  0.45338269  1
  O  O138  1  0.35849150  0.29508869  0.32542186  1
  C  C139  1  0.40262479  0.30637690  0.04396332  1
  C  C140  1  0.42465901  0.34745460  0.04256500  1
  H  H141  1  0.49364026  0.49606716  0.03910258  1
  H  H142  1  0.03705136  0.29618376  0.79814062  1
  C  C143  1  0.14282039  0.46582383  0.61323379  1
  C  C144  1  0.02522906  0.27383422  0.70557670  1
  C  C145  1  0.13820987  0.40636746  0.54868451  1
  O  O146  1  0.15869827  0.36828355  0.55659011  1
  Cu  Cu147  1  0.15185756  0.29155335  0.50038267  1
  C  C148  1  0.16831505  0.47736204  0.68958035  1
  H  H149  1  0.23059887  0.48024958  0.75430817  1
  O  O150  1  0.23197633  0.36105907  0.68854078  1
  C  C151  1  0.24874707  0.40834708  0.61463966  1
  C  C152  1  0.22368051  0.36295276  0.85462277  1
  H  H153  1  0.20082357  0.28372441  0.87416928  1
  H  H154  1  0.18084445  0.44024364  0.69894284  1
  C  C155  1  0.24731234  0.46505718  0.66670242  1
  Cu  Cu156  1  0.32538394  0.35146603  0.62984310  1
  O  O157  1  0.32346895  0.27448624  0.72586637  1
  C  C158  1  0.20769321  0.32254733  0.94181632  1
  H  H159  1  0.23901516  0.45288238  0.93287388  1
  C  C160  1  0.22888232  0.40854971  0.97171905  1
  O  O161  1  0.33045994  0.37748070  0.85524777  1
  C  C162  1  0.28931478  0.48423185  0.50242339  1
  C  C163  1  0.45737767  0.36910650  0.64084817  1
  H  H164  1  0.49183246  0.41305083  0.73761460  1
  C  C165  1  0.39893508  0.42974364  0.97312691  1
  H  H166  1  0.39921242  0.47691930  0.93998393  1
  H  H167  1  0.45620449  0.27277431  0.95465147  1
  C  C168  1  0.37599628  0.39483945  0.96451176  1
  O  O169  1  0.34602410  0.46586199  0.87999758  1
  O  O170  1  0.46985361  0.31214844  0.64611895  1
  H  H171  1  0.48853865  0.37099872  0.93236603  1
  C  C172  1  0.46088783  0.47336632  0.68463853  1
  C  C173  1  0.39324635  0.43489107  0.51002680  1
  O  O174  1  0.38162506  0.48363045  0.51205817  1
  C  C175  1  0.42134240  0.43080496  0.56503469  1
  C  C176  1  0.34902968  0.41604757  0.90131246  1
  H  H177  1  0.42046283  0.33932954  0.52226296  1
  C  C178  1  0.49244624  0.30196221  0.74498679  1
  Cu  Cu179  1  0.37146915  0.31850747  0.54749699  1
  C  C180  1  0.46974002  0.41847316  0.69498283  1
  C  C181  1  0.43193419  0.37463570  0.57073626  1
  C  C182  1  0.43483030  0.47938219  0.62086607  1
  H  H183  1  0.35943713  0.31564872  0.99474946  1
  C  C184  1  0.08034889  0.63071888  0.28573720  1
  C  C185  1  0.10741629  0.61895804  0.26050326  1
  C  C186  1  0.11970258  0.56428010  0.26747077  1
  H  H187  1  0.03910090  0.59179102  0.30286393  1
  C  C188  1  0.06146755  0.58438446  0.29995795  1
  O  O189  1  0.03990385  0.68342282  0.31528221  1
  C  C190  1  0.06619471  0.68705915  0.28400028  1
  O  O191  1  0.14633911  0.55033723  0.26585569  1
  H  H192  1  0.11839667  0.65722447  0.21856042  1
  C  C193  1  0.16442154  0.64545171  0.35388861  1
  O  O194  1  0.07804219  0.73060903  0.27816128  1
  C  C195  1  0.07142337  0.52795108  0.29822834  1
  C  C196  1  0.09927450  0.52321772  0.28432714  1
  H  H197  1  0.14777199  0.65175463  0.44792789  1
  O  O198  1  0.00385028  0.51256153  0.03752186  1
  Cu  Cu199  1  0.01376847  0.73376042  0.29546032  1
  C  C200  1  0.16629136  0.59461023  0.25513136  1
  H  H201  1  0.03479228  0.56138001  0.49496298  1
  C  C202  1  0.02111152  0.52467749  0.46643155  1
  O  O203  1  0.26992479  0.74654121  0.46571885  1
  C  C204  1  0.18166122  0.69090716  0.34682969  1
  C  C205  1  0.18988875  0.59344803  0.15864299  1
  C  C206  1  0.20441052  0.68690045  0.23291882  1
  C  C207  1  0.26488817  0.59938296  0.30701053  1
  C  C208  1  0.24639741  0.55691540  0.31603756  1
  H  H209  1  0.26125405  0.63858311  0.38941785  1
  C  C210  1  0.28582247  0.59198375  0.18518235  1
  C  C211  1  0.30564183  0.63624381  0.15766350  1
  C  C212  1  0.20890984  0.63676834  0.14146163  1
  O  O213  1  0.30448390  0.68107512  0.24753405  1
  H  H214  1  0.19285777  0.55106767  0.08921874  1
  H  H215  1  0.22591347  0.63610949  0.04970016  1
  H  H216  1  0.22837246  0.55870700  0.40194991  1
  C  C217  1  0.28834070  0.53938278  0.08783953  1
  O  O218  1  0.32372245  0.63450401  0.03791430  1
  Cu  Cu219  1  0.27942239  0.73745878  0.22706573  1
  O  O220  1  0.24565465  0.72550339  0.13502860  1
  H  H221  1  0.17840138  0.73174776  0.41687203  1
  C  C222  1  0.31218047  0.52319786  0.46936123  1
  C  C223  1  0.22442950  0.73307258  0.21706759  1
  H  H224  1  0.30485996  0.53237752  0.00325522  1
  O  O225  1  0.32945653  0.50623531  0.35960977  1
  C  C226  1  0.24572982  0.50597108  0.22092138  1
  O  O227  1  0.38443065  0.59486936  0.03529318  1
  C  C228  1  0.45218051  0.69745942  0.42803465  1
  C  C229  1  0.48117512  0.66386882  0.05551991  1
  Cu  Cu230  1  0.35969846  0.65523759  0.06520124  1
  C  C231  1  0.40620054  0.66595384  0.46618962  1
  C  C232  1  0.47449877  0.62463511  0.19391075  1
  Cu  Cu233  1  0.36667603  0.51937738  0.30568440  1
  H  H234  1  0.46728711  0.72238519  0.34829876  1
  H  H235  1  0.49183279  0.62050523  0.28538858  1
  O  O236  1  0.40127985  0.53558673  0.23390415  1
  C  C237  1  0.45189907  0.59165571  0.21784572  1
  H  H238  1  0.45142032  0.55845234  0.31704475  1
  C  C239  1  0.40442896  0.57878738  0.13576658  1
  O  O240  1  0.37125244  0.68467470  0.26537111  1
  C  C241  1  0.42986429  0.60397155  0.10418004  1
  C  C242  1  0.37787030  0.66532798  0.40984732  1
  C  C243  1  0.42522438  0.70109270  0.38572870  1
  H  H244  1  0.41690871  0.72898086  0.28012778  1
  O  O245  1  0.11016443  0.61457398  0.71664122  1
  C  C246  1  0.06401447  0.64391306  0.77629608  1
  C  C247  1  0.15579021  0.56937969  0.75382384  1
  C  C248  1  0.12982788  0.56217942  0.69721051  1
  C  C249  1  0.08626108  0.60475814  0.78094748  1
  C  C250  1  0.03817242  0.63498818  0.82682619  1
  C  C251  1  0.07928769  0.55452146  0.87343665  1
  H  H252  1  0.16234132  0.60917343  0.82767606  1
  H  H253  1  0.02257816  0.66749890  0.81937921  1
  H  H254  1  0.06699272  0.68445835  0.70121807  1
  C  C255  1  0.03224889  0.58085851  0.90263856  1
  C  C256  1  0.05357624  0.54058795  0.92810937  1
  H  H257  1  0.09651899  0.52591384  0.90783692  1
  C  C258  1  0.12337407  0.50930295  0.63052187  1
  H  H259  1  0.10277205  0.50047925  0.58889279  1
  C  C260  1  0.00592282  0.56269293  0.96422680  1
  H  H261  1  0.05002562  0.50053463  0.99906179  1
  C  C262  1  0.17717116  0.52956570  0.74947356  1
  C  C263  1  0.24457478  0.59466424  0.83739139  1
  C  C264  1  0.21813473  0.58771612  0.76424871  1
  C  C265  1  0.26304353  0.63423497  0.79394304  1
  O  O266  1  0.20288446  0.54513381  0.82224759  1
  H  H267  1  0.28300636  0.63707016  0.84990906  1
  C  C268  1  0.25671773  0.67359433  0.65622800  1
  C  C269  1  0.21266321  0.62791939  0.63214834  1
  H  H270  1  0.26739306  0.54540124  0.66368798  1
  C  C271  1  0.26763491  0.50193319  0.61377538  1
  O  O272  1  0.30117069  0.70006956  0.61036486  1
  H  H273  1  0.19278149  0.61987813  0.56223817  1
  C  C274  1  0.27677184  0.71138556  0.58447155  1
  C  C275  1  0.23043125  0.67100816  0.59253400  1
  O  O276  1  0.31358308  0.56753353  0.55978494  1
  H  H277  1  0.24958977  0.56607196  0.94363157  1
  H  H278  1  0.22259067  0.70416695  0.50225980  1
  Cu  Cu279  1  0.32467688  0.64244388  0.50503037  1
  C  C280  1  0.44400410  0.62675448  0.62319820  1
  O  O281  1  0.47543245  0.52509275  0.73505929  1
  H  H282  1  0.40132631  0.59772956  0.64335645  1
  O  O283  1  0.49083070  0.65535974  0.60461740  1
  C  C284  1  0.45814051  0.66725554  0.94996400  1
  C  C285  1  0.41588120  0.62722591  0.58693856  1
  H  H286  1  0.46171403  0.69607805  0.83887639  1
  C  C287  1  0.46332311  0.66144043  0.55192651  1
  H  H288  1  0.45198508  0.59409309  0.70932643  1
  H  H289  1  0.42308032  0.51963393  0.61417325  1
  O  O290  1  0.36174753  0.63606776  0.50349071  1
  C  C291  1  0.43346604  0.64271004  0.96342882  1
  H  H292  1  0.41734758  0.64953107  0.87008291  1
  C  C293  1  0.01533108  0.94833854  0.12116782  1
  H  H294  1  0.09749301  0.89141408  0.29687948  1
  C  C295  1  0.07912138  0.89621023  0.38448002  1
  O  O296  1  0.10055082  0.98838290  0.42137691  1
  C  C297  1  0.07870453  0.94955577  0.46993046  1
  C  C298  1  0.06346224  0.84996496  0.41999207  1
  H  H299  1  0.06732223  0.80807451  0.34905227  1
  C  C300  1  0.03385198  0.99430960  0.10668618  1
  H  H301  1  0.02038857  0.90773518  0.05142654  1
  O  O302  1  0.05728661  0.99211580  0.02110446  1
  O  O303  1  0.21887273  0.77634470  0.31138154  1
  Cu  Cu304  1  0.22481961  0.85354924  0.26341791  1
  O  O305  1  0.30144483  0.80282239  0.14201638  1
  C  C306  1  0.31014250  0.90395299  0.16301098  1
  C  C307  1  0.29569232  0.85367759  0.08681996  1
  O  O308  1  0.23280202  0.92529097  0.18642187  1
  C  C309  1  0.30087166  0.95859874  0.11573229  1
  C  C310  1  0.22117647  0.95754030  0.07262736  1
  H  H311  1  0.28559313  0.96895935  0.01868150  1
  C  C312  1  0.32965641  0.89384896  0.29091182  1
  C  C313  1  0.19569764  0.92671803  0.48830444  1
  O  O314  1  0.20915397  0.87755163  0.46326703  1
  O  O315  1  0.17223523  0.92735699  0.47286185  1
  H  H316  1  0.46615448  0.98701315  0.14731521  1
  C  C317  1  0.47444424  0.94249854  0.17184638  1
  H  H318  1  0.33537559  0.84946737  0.32312136  1
  C  C319  1  0.34173754  0.94141643  0.36364744  1
  C  C320  1  0.48830528  0.92592515  0.32242561  1
  C  C321  1  0.49756205  0.87258421  0.36969715  1
  C  C322  1  0.47207626  0.89996552  0.04955888  1
  H  H323  1  0.49314539  0.95925220  0.41737597  1
  C  C324  1  0.48328429  0.84336621  0.07504093  1
  C  C325  1  0.49526147  0.83085374  0.23177534  1
  C  C326  1  0.33371675  0.99726785  0.33067568  1
  H  H327  1  0.35712440  0.93190710  0.46169445  1
  H  H328  1  0.01828541  0.92452906  0.68811696  1
  C  C329  1  0.03631337  0.91561156  0.60406344  1
  C  C330  1  0.05711125  0.95489667  0.58037393  1
  C  C331  1  0.02130136  0.81556834  0.56042353  1
  C  C332  1  0.04117509  0.86192601  0.52757985  1
  O  O333  1  0.02529402  0.76525692  0.50430726  1
  H  H334  1  0.05676278  0.99491713  0.65617457  1
  C  C335  1  0.21113056  0.98030021  0.51818448  1
  C  C336  1  0.23825521  0.98116950  0.56307876  1
  H  H337  1  0.24813724  0.94044966  0.59135348  1
  O  O338  1  0.20591138  0.94002073  0.96522524  1
  O  O339  1  0.27881773  0.86272518  0.97909484  1
  C  C340  1  0.45771867  0.91259111  0.88176600  1
  H  H341  1  0.47897675  0.76297088  0.52438300  1
  O  O342  1  0.45187954  0.87438400  0.78613958  1
  O  O343  1  0.45536739  0.96701883  0.85390677  1
  H  H344  1  0.48031074  0.80911830  0.98083672  1
  C  C345  1  0.59518144  0.04967784  0.07918637  1
  O  O346  1  0.58052554  0.03457020  0.19612994  1
  C  C347  1  0.65465401  0.04366696  0.37377452  1
  O  O348  1  0.53197232  0.17416342  0.20781871  1
  O  O349  1  0.51349108  0.10795125  0.36093016  1
  C  C350  1  0.51047490  0.14931077  0.27219925  1
  Cu  Cu351  1  0.56276544  0.14368667  0.11405656  1
  H  H352  1  0.64166712  0.02284801  0.27069983  1
  O  O353  1  0.59378238  0.10285119  0.02542776  1
  C  C354  1  0.61525147  0.00538782  0.01105244  1
  H  H355  1  0.61901356  0.09759133  0.40314216  1
  C  C356  1  0.63956008  0.08594318  0.45657865  1
  O  O357  1  0.57688042  0.21601883  0.05766798  1
  C  C358  1  0.77430621  0.01784222  0.13269924  1
  H  H359  1  0.79963888  0.04162505  0.34682015  1
  C  C360  1  0.73409175  0.04617720  0.25895603  1
  C  C361  1  0.75950839  0.06224776  0.20136661  1
  C  C362  1  0.79714739  0.12639842  0.26711414  1
  O  O363  1  0.77147406  0.12286955  0.21539702  1
  H  H364  1  0.72145218  0.08073136  0.31393151  1
  C  C365  1  0.81188604  0.07859889  0.32829135  1
  C  C366  1  0.68078768  0.02770175  0.42818623  1
  C  C367  1  0.81218733  0.17819173  0.27560091  1
  H  H368  1  0.80318174  0.22173453  0.25223626  1
  H  H369  1  0.79465322  0.03033065  0.07529539  1
  C  C370  1  0.83893204  0.07795404  0.36652443  1
  C  C371  1  0.83883707  0.17830343  0.31339597  1
  C  C372  1  0.85478275  0.12739810  0.33455381  1
  H  H373  1  0.99197832  0.08587542  0.34506159  1
  O  O374  1  0.93034543  0.23408649  0.08500080  1
  C  C375  1  0.98892454  0.23758545  0.11657372  1
  O  O376  1  0.89676385  0.17262796  0.32624646  1
  O  O377  1  0.89446492  0.07674544  0.36685101  1
  H  H378  1  0.84775740  0.03970617  0.42159873  1
  C  C379  1  0.88314398  0.12459717  0.34180041  1
  H  H380  1  0.85071301  0.21850173  0.31356623  1
  Cu  Cu381  1  0.89280417  0.21278338  0.12937930  1
  O  O382  1  0.94767245  0.03714784  0.48101836  1
  H  H383  1  0.98286969  0.16999575  0.44204207  1
  C  C384  1  0.97370374  0.20454891  0.00154858  1
  O  O385  1  0.86446482  0.24638779  0.01953490  1
  H  H386  1  0.54188879  0.19759032  0.78271133  1
  H  H387  1  0.63390310  0.04961826  0.78808497  1
  C  C388  1  0.63934795  0.17162510  0.67725894  1
  C  C389  1  0.63370415  0.01368927  0.87311801  1
  O  O390  1  0.61805920  0.18869205  0.61785955  1
  C  C391  1  0.53062159  0.23735662  0.80881630  1
  C  C392  1  0.65198414  0.11473860  0.59206519  1
  O  O393  1  0.64999238  0.19411989  0.80457525  1
  H  H394  1  0.50276235  0.22462500  0.60188698  1
  O  O395  1  0.54544795  0.00745802  0.73460388  1
  O  O396  1  0.74685457  0.02846887  0.76517434  1
  C  C397  1  0.77345549  0.04260699  0.75751246  1
  H  H398  1  0.68643857  0.12591880  0.76242387  1
  C  C399  1  0.78536795  0.09744487  0.77251585  1
  H  H400  1  0.77224865  0.13275344  0.81172974  1
  C  C401  1  0.81184479  0.11001254  0.75207484  1
  C  C402  1  0.67741401  0.10102770  0.65736196  1
  C  C403  1  0.82105808  0.00869738  0.72993400  1
  H  H404  1  0.81820772  0.15588845  0.76381355  1
  C  C405  1  0.69044314  0.05552988  0.57296052  1
  H  H406  1  0.70941499  0.04279416  0.63282487  1
  C  C407  1  0.83113058  0.06532509  0.72866477  1
  O  O408  1  0.88514992  0.24448903  0.77116656  1
  O  O409  1  0.86470960  0.13301684  0.71406507  1
  Cu  Cu410  1  0.91257797  0.04592568  0.57076460  1
  C  C411  1  0.86003735  0.08054682  0.71544278  1
  C  C412  1  0.98159238  0.24773451  0.58380468  1
  O  O413  1  0.93337733  0.16773054  0.88474611  1
  H  H414  1  0.95947643  0.24991080  0.58410762  1
  H  H415  1  0.97764891  0.14210778  0.81276851  1
  C  C416  1  0.98955776  0.16928468  0.89538830  1
  O  O417  1  0.87809380  0.04344695  0.69390834  1
  Cu  Cu418  1  0.89706406  0.16367635  0.81186566  1
  C  C419  1  0.94376419  0.20410094  0.98479946  1
  C  C420  1  0.99543293  0.20153361  0.51089034  1
  C  C421  1  0.52043180  0.40231037  0.33309755  1
  C  C422  1  0.51918334  0.44898592  0.22033562  1
  O  O423  1  0.57147080  0.39933350  0.38246733  1
  Cu  Cu424  1  0.59288848  0.34506729  0.26807196  1
  O  O425  1  0.62422415  0.37514597  0.36518954  1
  C  C426  1  0.54665826  0.38984253  0.43613893  1
  C  C427  1  0.63995834  0.41159354  0.31043735  1
  H  H428  1  0.53477795  0.47992663  0.21944949  1
  O  O429  1  0.56586012  0.29877689  0.17502216  1
  H  H430  1  0.52843349  0.34666732  0.09928298  1
  O  O431  1  0.63163272  0.46113741  0.27094894  1
  C  C432  1  0.56240358  0.26056842  0.06155620  1
  H  H433  1  0.66365958  0.32144962  0.46091819  1
  C  C434  1  0.66941259  0.40078301  0.33193116  1
  C  C435  1  0.71472992  0.43042465  0.29631061  1
  C  C436  1  0.68725469  0.44099442  0.26232821  1
  C  C437  1  0.67848645  0.35253967  0.42146443  1
  C  C438  1  0.72541155  0.38934146  0.41313786  1
  H  H439  1  0.72928475  0.46146897  0.23768370  1
  H  H440  1  0.68064451  0.47797453  0.17676086  1
  H  H441  1  0.81969453  0.43056259  0.03520867  1
  H  H442  1  0.72796675  0.49885489  0.45223019  1
  C  C443  1  0.70601267  0.35013490  0.46884530  1
  O  O444  1  0.75323925  0.39196064  0.45827192  1
  C  C445  1  0.89590297  0.47927743  0.17677443  1
  H  H446  1  0.98041193  0.27307887  0.18849433  1
  C  C447  1  0.98525586  0.43333786  0.46315581  1
  H  H448  1  0.84106577  0.33124713  0.09152227  1
  C  C449  1  0.87338343  0.48757476  0.06887755  1
  H  H450  1  0.91045008  0.49228948  0.44520781  1
  Cu  Cu451  1  0.97212355  0.48010065  0.10931092  1
  H  H452  1  0.97290938  0.39511060  0.46527760  1
  C  C453  1  0.91832072  0.44459702  0.11107852  1
  O  O454  1  0.94161768  0.43996239  0.18193702  1
  C  C455  1  0.52018995  0.48886695  0.67523743  1
  C  C456  1  0.53958285  0.27388099  0.94793319  1
  C  C457  1  0.54788686  0.48965913  0.68527351  1
  H  H458  1  0.56175547  0.45472783  0.63853541  1
  H  H459  1  0.51243613  0.45266054  0.59985517  1
  C  C460  1  0.50100492  0.33572877  0.88136806  1
  O  O461  1  0.54357146  0.36264651  0.56989538  1
  C  C462  1  0.50833240  0.25358717  0.71313651  1
  C  C463  1  0.52414613  0.32117970  0.98029337  1
  C  C464  1  0.74894284  0.49590465  0.50498165  1
  H  H465  1  0.73158610  0.43598121  0.78708990  1
  C  C466  1  0.72103399  0.47492890  0.82844020  1
  H  H467  1  0.79949380  0.41204479  0.58477182  1
  C  C468  1  0.78778046  0.44865772  0.59277894  1
  C  C469  1  0.69726011  0.49001022  0.73869004  1
  H  H470  1  0.70965778  0.31524451  0.55393386  1
  H  H471  1  0.68974577  0.46190468  0.63531633  1
  C  C472  1  0.80097481  0.49680748  0.66438071  1
  C  C473  1  0.76256994  0.44448546  0.50774491  1
  O  O474  1  0.82520766  0.48995114  0.73704576  1
  C  C475  1  0.83201144  0.40868429  0.93454332  1
  C  C476  1  0.97772424  0.48418158  0.55071352  1
  H  H477  1  0.87829770  0.33194929  0.56333003  1
  O  O478  1  0.99791960  0.36529067  0.86131147  1
  C  C479  1  0.85411595  0.40748541  0.65369256  1
  C  C480  1  0.84441890  0.35408928  0.96220360  1
  H  H481  1  0.85812283  0.43383459  0.53104646  1
  C  C482  1  0.99716477  0.28494656  0.68110514  1
  C  C483  1  0.98419577  0.33449336  0.77531479  1
  O  O484  1  0.95922468  0.34049003  0.73235645  1
  O  O485  1  0.93874616  0.43974927  0.63866508  1
  C  C486  1  0.95239503  0.48408733  0.64289218  1
  C  C487  1  0.86981535  0.27159814  0.87265431  1
  C  C488  1  0.85883227  0.32611043  0.82512362  1
  C  C489  1  0.86566766  0.35288887  0.66417398  1
  H  H490  1  0.87220834  0.46584550  0.94011089  1
  Cu  Cu491  1  0.93449800  0.38615145  0.82885138  1
  C  C492  1  0.83632853  0.43284961  0.77612822  1
  O  O493  1  0.91452960  0.42763671  0.95627823  1
  H  H494  1  0.53102307  0.60190220  0.18335229  1
  C  C495  1  0.56793190  0.63818367  0.24096681  1
  C  C496  1  0.54124888  0.64253450  0.18138608  1
  H  H497  1  0.60538347  0.68298944  0.28044667  1
  C  C498  1  0.58386916  0.68718067  0.24253397  1
  C  C499  1  0.52962077  0.68999788  0.10123534  1
  C  C500  1  0.57838883  0.58113202  0.28644024  1
  O  O501  1  0.56420574  0.53990598  0.28080115  1
  O  O502  1  0.60331513  0.57833659  0.33232999  1
  C  C503  1  0.54765234  0.73397217  0.09694954  1
  C  C504  1  0.57443803  0.73830500  0.16890972  1
  Cu  Cu505  1  0.61709804  0.51397595  0.45080986  1
  O  O506  1  0.50239415  0.69703312  0.02142026  1
  C  C507  1  0.79428823  0.54912003  0.18959379  1
  C  C508  1  0.80418323  0.65016585  0.16325999  1
  C  C509  1  0.80938520  0.59650737  0.23050091  1
  H  H510  1  0.81743558  0.68618100  0.19314395  1
  C  C511  1  0.77141361  0.55251094  0.08242115  1
  O  O512  1  0.75607959  0.50349277  0.04261767  1
  H  H513  1  0.80083406  0.50830222  0.24691175  1
  C  C514  1  0.78105168  0.65738384  0.05838336  1
  O  O515  1  0.72381995  0.60741116  0.47416300  1
  H  H516  1  0.72341961  0.58544005  0.11999186  1
  C  C517  1  0.76700015  0.60771363  0.01763501  1
  C  C518  1  0.71637827  0.55818794  0.00948845  1
  C  C519  1  0.81229949  0.74077537  0.49785688  1
  H  H520  1  0.83547457  0.53041743  0.04310582  1
  C  C521  1  0.89606055  0.50515145  0.34396423  1
  C  C522  1  0.91304621  0.66617896  0.38623108  1
  C  C523  1  0.88751909  0.66423194  0.11268853  1
  O  O524  1  0.98519768  0.67654796  0.26506181  1
  H  H525  1  0.87045392  0.67447105  0.37448260  1
  C  C526  1  0.85301477  0.55312227  0.28287715  1
  O  O527  1  0.86161389  0.66619355  0.01820090  1
  C  C528  1  0.93634803  0.66549039  0.11361142  1
  O  O529  1  0.83421253  0.58882869  0.34447078  1
  C  C530  1  0.88877139  0.66851029  0.29514644  1
  C  C531  1  0.96495166  0.66927728  0.37250465  1
  H  H532  1  0.95584384  0.66703533  0.04262537  1
  C  C533  1  0.85378532  0.52548022  0.11976611  1
  C  C534  1  0.93726762  0.66746726  0.29777648  1
  C  C535  1  0.87440410  0.53688707  0.39606751  1
  C  C536  1  0.91205585  0.66179182  0.02400550  1
  C  C537  1  0.53639001  0.69197036  0.63480935  1
  C  C538  1  0.54607868  0.58023446  0.84882197  1
  O  O539  1  0.60307904  0.57536731  0.84689988  1
  C  C540  1  0.51804913  0.57356962  0.83263608  1
  O  O541  1  0.58825751  0.67501880  0.72499400  1
  H  H542  1  0.55605584  0.61432900  0.92769689  1
  Cu  Cu543  1  0.61923044  0.63402716  0.72597485  1
  C  C544  1  0.58179999  0.72875619  0.69579318  1
  O  O545  1  0.65287514  0.61030521  0.70734826  1
  C  C546  1  0.59002766  0.53608451  0.76705586  1
  C  C547  1  0.56097310  0.53568173  0.77096349  1
  C  C548  1  0.50900829  0.69987747  0.59677511  1
  H  H549  1  0.50142614  0.60273806  0.89764804  1
  C  C550  1  0.50297824  0.52902022  0.75199762  1
  H  H551  1  0.54630545  0.64878639  0.64642659  1
  C  C552  1  0.55248012  0.74034564  0.65173332  1
  C  C553  1  0.66256792  0.56153590  0.66792808  1
  O  O554  1  0.65322988  0.52949255  0.54985476  1
  O  O555  1  0.60263332  0.50103280  0.67805174  1
  C  C556  1  0.68576778  0.54286535  0.76492422  1
  O  O557  1  0.75522196  0.72564059  0.89338598  1
  C  C558  1  0.69535979  0.57543468  0.91489000  1
  H  H559  1  0.75091301  0.61103887  0.91774722  1
  O  O560  1  0.75168052  0.64378899  0.66293913  1
  H  H561  1  0.79154183  0.58732804  0.71512404  1
  H  H562  1  0.68493336  0.61454052  0.94644471  1
  Cu  Cu563  1  0.75873007  0.72167372  0.65179512  1
  C  C564  1  0.78509278  0.54726837  0.65363635  1
  H  H565  1  0.81927767  0.67072013  0.78425432  1
  C  C566  1  0.77549634  0.71540180  0.98622132  1
  O  O567  1  0.79173277  0.70991565  0.52942737  1
  C  C568  1  0.76050560  0.54747820  0.57151719  1
  C  C569  1  0.74408414  0.60207207  0.55945216  1
  C  C570  1  0.73156601  0.50955532  0.95600682  1
  H  H571  1  0.99165127  0.56724692  0.62581831  1
  H  H572  1  0.91340023  0.67176612  0.52728986  1
  O  O573  1  0.94522012  0.53140629  0.70977676  1
  Cu  Cu574  1  0.94892549  0.55651236  0.94702277  1
  O  O575  1  0.98473575  0.58881554  0.93343946  1
  H  H576  1  0.91008434  0.66321972  0.87783855  1
  C  C577  1  0.85918588  0.70002988  0.87443566  1
  C  C578  1  0.99604263  0.52895550  0.54527560  1
  H  H579  1  0.87393285  0.54775537  0.53355104  1
  H  H580  1  0.89756655  0.74286954  0.91373901  1
  O  O581  1  0.96847050  0.66671161  0.52800158  1
  C  C582  1  0.83562046  0.73448865  0.61065926  1
  C  C583  1  0.83653865  0.70130077  0.76253622  1
  C  C584  1  0.87973283  0.73872912  0.82648041  1
  H  H585  1  0.60298997  0.94861107  0.21290532  1
  H  H586  1  0.54286552  0.83072556  0.24531271  1
  C  C587  1  0.55318991  0.85591997  0.14632741  1
  H  H588  1  0.51750015  0.91192614  0.11934332  1
  C  C589  1  0.61613480  0.95515479  0.10401107  1
  H  H590  1  0.63671032  0.87704508  0.14073153  1
  O  O591  1  0.58933108  0.78605299  0.18019482  1
  C  C592  1  0.53887546  0.90190802  0.07026878  1
  C  C593  1  0.57714883  0.83758454  0.08395660  1
  C  C594  1  0.63737851  0.91716588  0.06707643  1
  H  H595  1  0.50491256  0.79007667  0.25874962  1
  H  H596  1  0.54205714  0.77224624  0.01817726  1
  O  O597  1  0.81305586  0.77586747  0.37113860  1
  Cu  Cu598  1  0.78507129  0.80171558  0.21238240  1
  C  C599  1  0.73864673  0.94998495  0.19765177  1
  H  H600  1  0.73330246  0.90404650  0.20345060  1
  C  C601  1  0.76378608  0.96123757  0.13216928  1
  O  O602  1  0.77183970  0.84300952  0.40376823  1
  O  O603  1  0.77197397  0.86311556  0.05565629  1
  O  O604  1  0.69674006  0.98215980  0.32512641  1
  C  C605  1  0.72109363  0.99259266  0.26869869  1
  C  C606  1  0.78265030  0.91536926  0.06284451  1
  O  O607  1  0.79195075  0.75343064  0.02948962  1
  C  C608  1  0.75063645  0.82987117  0.49020651  1
  O  O609  1  0.80471512  0.92574238  0.01131594  1
  O  O610  1  0.99731319  0.79909630  0.21081991  1
  H  H611  1  0.92004531  0.84170217  0.22218169  1
  H  H612  1  0.85688101  0.80046609  0.45500608  1
  O  O613  1  0.95193685  0.94374785  0.44722694  1
  C  C614  1  0.95635665  0.81320820  0.07110699  1
  C  C615  1  0.97222436  0.81454160  0.23020712  1
  C  C616  1  0.99184318  0.94795122  0.21710732  1
  C  C617  1  0.95853571  0.99421888  0.40796309  1
  C  C618  1  0.98302315  0.99748344  0.30413204  1
  H  H619  1  0.97977942  0.90784330  0.21461146  1
  O  O620  1  0.96137377  0.82723286  0.37306056  1
  C  C621  1  0.92815699  0.82896357  0.09410863  1
  H  H622  1  0.58755382  0.94336149  0.79738155  1
  H  H623  1  0.61052747  0.85327148  0.89383440  1
  C  C624  1  0.57696693  0.91388415  0.88404579  1
  C  C625  1  0.54204605  0.79403190  0.61620847  1
  C  C626  1  0.59078654  0.86602673  0.95009473  1
  C  C627  1  0.65311885  0.97203351  0.84492773  1
  C  C628  1  0.51597124  0.80296463  0.56441730  1
  H  H629  1  0.55609842  0.83171376  0.62084569  1
  C  C630  1  0.65686819  0.92164711  0.93560736  1
  C  C631  1  0.55104526  0.93191191  0.93118174  1
  C  C632  1  0.53485198  0.97818911  0.84031927  1
  O  O633  1  0.50868436  0.86464703  0.52859172  1
  C  C634  1  0.50013015  0.75534276  0.55614228  1
  O  O635  1  0.59865645  0.76443398  0.68427963  1
  O  O636  1  0.51034633  0.98756913  0.89136138  1
  C  C637  1  0.73755384  0.96826249  0.73534108  1
  C  C638  1  0.71688243  0.85904020  0.70671933  1
  C  C639  1  0.70231295  0.89732215  0.80850758  1
  C  C640  1  0.71437255  0.95083597  0.82474681  1
  H  H641  1  0.70845015  0.81453620  0.69956281  1
  C  C642  1  0.73999844  0.87200585  0.61030637  1
  C  C643  1  0.74779465  0.93088335  0.61828121  1
  H  H644  1  0.78549064  0.95552979  0.74365929  1
  O  O645  1  0.67753446  0.88135054  0.89938168  1
  H  H646  1  0.76439972  0.94607228  0.53256230  1
  O  O647  1  0.74357688  0.77828574  0.50324871  1
  H  H648  1  0.66693966  0.98030419  0.73715263  1
  H  H649  1  0.70377398  0.98295283  0.90780797  1
  C  C650  1  0.79363201  0.99974716  0.73863385  1
  O  O651  1  0.99876525  0.82797585  0.62466087  1
  H  H652  1  0.83594017  0.97480326  0.72875943  1
  O  O653  1  0.90182612  0.80913648  0.64397226  1
  C  C654  1  0.88035694  0.77338421  0.67718853  1
  C  C655  1  0.94797163  0.79711812  0.76777687  1
  C  C656  1  0.96551794  0.79680486  0.90670186  1
  Cu  Cu657  1  0.97469694  0.88521139  0.53287564  1
  C  C658  1  0.92096631  0.81328164  0.78321387  1
  C  C659  1  0.85762328  0.77064286  0.56985815  1
  C  C660  1  0.91273706  0.82771736  0.94925431  1
  H  H661  1  0.95656667  0.78587285  0.63450153  1
  H  H662  1  0.98623038  0.78542329  0.88098180  1
  H  H663  1  0.89099023  0.83321697  0.97043621  1
