# generated using pymatgen
data_ZnH6(C3O)4
_symmetry_space_group_name_H-M   'P 1'
_cell_length_a   12.05310516
_cell_length_b   28.07626906
_cell_length_c   18.61582490
_cell_angle_alpha   90.00000000
_cell_angle_beta   90.00000000
_cell_angle_gamma   90.00000000
_symmetry_Int_Tables_number   1
_chemical_formula_structural   ZnH6(C3O)4
_chemical_formula_sum   'Zn24 H144 C288 O96'
_cell_volume   6299.71099896
_cell_formula_units_Z   24
loop_
 _symmetry_equiv_pos_site_id
 _symmetry_equiv_pos_as_xyz
  1  'x, y, z'
loop_
 _atom_site_type_symbol
 _atom_site_label
 _atom_site_symmetry_multiplicity
 _atom_site_fract_x
 _atom_site_fract_y
 _atom_site_fract_z
 _atom_site_occupancy
  C  C0  1  0.43155221  0.11655092  0.37758082  1
  C  C1  1  0.08664736  0.01881154  0.48433150  1
  C  C2  1  0.28604010  0.00145470  0.48966659  1
  C  C3  1  0.44350998  0.10858684  0.14689585  1
  C  C4  1  0.26504793  0.18803889  0.26333037  1
  C  C5  1  0.40812373  0.07711559  0.02032257  1
  H  H6  1  0.48408407  0.06505246  0.45691057  1
  H  H7  1  0.35468908  0.12334877  0.40646656  1
  H  H8  1  0.47110416  0.13993403  0.25030606  1
  H  H9  1  0.31675595  0.20349770  0.30416128  1
  C  C10  1  0.11523613  0.09722777  0.30227002  1
  C  C11  1  0.37177087  0.03837065  0.32482352  1
  H  H12  1  0.29166011  0.03888286  0.35524581  1
  H  H13  1  0.20412894  0.11616990  0.03634172  1
  C  C14  1  0.15509157  0.19928995  0.26231212  1
  H  H15  1  0.21044407  0.07279091  0.20713576  1
  C  C16  1  0.14266976  0.06411445  0.24747053  1
  C  C17  1  0.30065847  0.15561219  0.20852125  1
  H  H18  1  0.17588833  0.12666515  0.31058593  1
  C  C19  1  0.07465485  0.18819615  0.21051324  1
  C  C20  1  0.37099515  0.10461790  0.08563366  1
  C  C21  1  0.41119690  0.13500949  0.20668660  1
  C  C22  1  0.45809868  0.07290876  0.34157062  1
  C  C23  1  0.19308811  0.03206081  0.49821448  1
  C  C24  1  0.10710654  0.16218042  0.15113589  1
  C  C25  1  0.22294759  0.14769101  0.14541866  1
  C  C26  1  0.25898434  0.12208631  0.08381541  1
  C  C27  1  0.08087874  0.02238563  0.24256517  1
  O  O28  1  0.40844270  0.19879771  0.44509061  1
  C  C29  1  0.11473468  0.23421804  0.31982057  1
  H  H30  1  0.05059830  0.15414368  0.10842802  1
  H  H31  1  0.01580951  0.04380081  0.49676033  1
  O  O32  1  0.49790570  0.05622670  0.01655385  1
  H  H33  1  0.02943075  0.15942660  0.40532208  1
  C  C34  1  0.01899948  0.09308028  0.34484918  1
  H  H35  1  0.01009386  0.23462257  0.06681325  1
  C  C36  1  0.38155404  0.00667576  0.27157108  1
  O  O37  1  0.01275082  0.23607273  0.32728910  1
  C  C38  1  0.48504743  0.00761739  0.23335633  1
  C  C39  1  0.28537378  0.23423852  0.59658926  1
  Zn  Zn40  1  0.37307859  0.12353167  0.64217851  1
  Zn  Zn41  1  0.40762165  0.04398834  0.86935884  1
  H  H42  1  0.46310998  0.18734146  0.92286087  1
  O  O43  1  0.31621014  0.13565183  0.74396541  1
  O  O44  1  0.21003985  0.22130758  0.54845439  1
  C  C45  1  0.36832046  0.14484749  0.80187809  1
  O  O46  1  0.30326470  0.09699272  0.53823412  1
  O  O47  1  0.35681243  0.20713746  0.61684641  1
  H  H48  1  0.11203782  0.01913175  0.61292975  1
  H  H49  1  0.22892328  0.20441118  0.74923495  1
  Zn  Zn50  1  0.07258791  0.13598082  0.88791546  1
  O  O51  1  0.37956323  0.04114456  0.68345501  1
  H  H52  1  0.39880253  0.07001386  0.71932767  1
  Zn  Zn53  1  0.07182045  0.17174380  0.58241959  1
  C  C54  1  0.06323987  0.18993258  0.97385463  1
  C  C55  1  0.29438040  0.01794749  0.72100730  1
  O  O56  1  0.34254521  0.07397565  0.96592598  1
  O  O57  1  0.04140774  0.10487910  0.65096175  1
  C  C58  1  0.34245964  0.19237058  0.83566780  1
  O  O59  1  0.24931781  0.03442052  0.77194553  1
  C  C60  1  0.39813300  0.20771713  0.89836639  1
  O  O61  1  0.43894948  0.11686184  0.82262954  1
  C  C62  1  0.25943886  0.21882160  0.79991562  1
  O  O63  1  0.12287369  0.22977276  0.99061787  1
  O  O64  1  0.13136192  0.11288707  0.51472900  1
  O  O65  1  0.02710717  0.22028384  0.66744547  1
  C  C66  1  0.04222741  0.00158685  0.63986707  1
  H  H67  1  0.36556835  0.01706209  0.50456258  1
  C  C68  1  0.20708263  0.08347840  0.52119016  1
  C  C69  1  0.06873239  0.30218890  0.15299577  1
  O  O70  1  0.24243973  0.37777564  0.29749138  1
  C  C71  1  0.21553661  0.34890999  0.23508992  1
  C  C72  1  0.13413453  0.28843300  0.08744316  1
  C  C73  1  0.09091539  0.25184490  0.04945969  1
  O  O74  1  0.18058538  0.25681546  0.35847450  1
  C  C75  1  0.25984846  0.43679294  0.41182610  1
  C  C76  1  0.26779344  0.46981125  0.46868018  1
  C  C77  1  0.43343194  0.34477504  0.45941949  1
  H  H78  1  0.19301744  0.41113324  0.40574855  1
  O  O79  1  0.35521674  0.41509160  0.03521094  1
  C  C80  1  0.12231717  0.32974109  0.21052197  1
  H  H81  1  0.45172768  0.33454766  0.04738436  1
  C  C82  1  0.34048145  0.43770775  0.35546488  1
  C  C83  1  0.33185630  0.40604153  0.29330945  1
  O  O84  1  0.39897531  0.40806363  0.24617164  1
  H  H85  1  0.29987451  0.34870869  0.20524025  1
  H  H86  1  0.21255028  0.30414181  0.07434568  1
  C  C87  1  0.43298576  0.46749603  0.35894440  1
  H  H88  1  0.49227843  0.46685747  0.31498648  1
  O  O89  1  0.49554888  0.33828489  0.40600627  1
  C  C90  1  0.02970454  0.47366332  0.14905200  1
  O  O91  1  0.07947788  0.43982108  0.12862386  1
  C  C92  1  0.40915874  0.32103694  0.00062697  1
  Zn  Zn93  1  0.27661465  0.25039162  0.44558453  1
  O  O94  1  0.35564856  0.31817662  0.47670209  1
  H  H95  1  0.49049118  0.25260958  0.02297946  1
  O  O96  1  0.46603386  0.49811274  0.91879543  1
  C  C97  1  0.27464430  0.32934056  0.90679680  1
  C  C98  1  0.29165044  0.28146416  0.88496987  1
  H  H99  1  0.12787998  0.30855517  0.57358772  1
  C  C100  1  0.23321269  0.26370546  0.82365607  1
  C  C101  1  0.26074075  0.41007872  0.75451161  1
  C  C102  1  0.39527709  0.39385869  0.57271599  1
  C  C103  1  0.26669696  0.36816184  0.71421651  1
  C  C104  1  0.45969714  0.38633740  0.50941101  1
  C  C105  1  0.42029791  0.43268901  0.61273935  1
  H  H106  1  0.40413837  0.33264236  0.77477545  1
  C  C107  1  0.37468591  0.25249236  0.92582556  1
  Zn  Zn108  1  0.28573797  0.49188108  0.93315229  1
  C  C109  1  0.34757200  0.33065474  0.73006436  1
  H  H110  1  0.17152117  0.28583895  0.79783722  1
  C  C111  1  0.35032299  0.28975206  0.68954750  1
  O  O112  1  0.24234453  0.42466170  0.94416502  1
  C  C113  1  0.16993659  0.43996133  0.73492164  1
  H  H114  1  0.37289700  0.44367829  0.65793016  1
  H  H115  1  0.32496713  0.41944237  0.79438390  1
  C  C116  1  0.18427045  0.35772677  0.65578576  1
  C  C117  1  0.08849859  0.43236993  0.68146739  1
  C  C118  1  0.27335845  0.28212688  0.63296567  1
  H  H119  1  0.02390932  0.38096164  0.60742928  1
  H  H120  1  0.32724644  0.36782143  0.58805499  1
  H  H121  1  0.41603893  0.26295374  0.69623338  1
  C  C122  1  0.18989296  0.31521810  0.61583061  1
  C  C123  1  0.09421909  0.39120925  0.64507133  1
  H  H124  1  0.21719426  0.35134741  0.87967615  1
  H  H125  1  0.02011229  0.45886241  0.67261284  1
  C  C126  1  0.30608546  0.39983971  0.98508187  1
  C  C127  1  0.32729675  0.34855672  0.96503234  1
  C  C128  1  0.16864772  0.48677666  0.77211217  1
  H  H129  1  0.01532623  0.30793537  0.68486073  1
  O  O130  1  0.24740906  0.49666826  0.81420699  1
  C  C131  1  0.43097736  0.27249562  0.98776827  1
  H  H132  1  0.12350659  0.44543524  0.53486653  1
  C  C133  1  0.19110643  0.47238362  0.52887743  1
  C  C134  1  0.31125410  0.74105693  0.02555002  1
  O  O135  1  0.20676895  0.58749186  0.16253239  1
  H  H136  1  0.05992569  0.67206152  0.39358908  1
  H  H137  1  0.11913770  0.71588520  0.12845734  1
  C  C138  1  0.42419583  0.62981158  0.13435941  1
  C  C139  1  0.44423214  0.50190280  0.41187660  1
  H  H140  1  0.36675576  0.62915001  0.08612843  1
  C  C141  1  0.11019096  0.70619029  0.18650871  1
  C  C142  1  0.39847855  0.61323351  0.20679937  1
  Zn  Zn143  1  0.28790004  0.58240835  0.31711000  1
  C  C144  1  0.07057138  0.68241365  0.33591212  1
  H  H145  1  0.08648532  0.54628807  0.17280729  1
  H  H146  1  0.07909117  0.51800897  0.36607067  1
  C  C147  1  0.19218804  0.71344628  0.23765733  1
  C  C148  1  0.46568838  0.61892109  0.27465992  1
  O  O149  1  0.23638006  0.70422247  0.43045972  1
  H  H150  1  0.39628240  0.72576290  0.03201587  1
  C  C151  1  0.28198635  0.59560938  0.20238059  1
  H  H152  1  0.06700048  0.58395007  0.45317411  1
  C  C153  1  0.16800669  0.70097096  0.30989899  1
  C  C154  1  0.26039208  0.70998182  0.36374131  1
  Zn  Zn155  1  0.45762422  0.73949185  0.43841131  1
  O  O156  1  0.35244753  0.72629852  0.34529501  1
  C  C157  1  0.44430513  0.60130591  0.34715941  1
  C  C158  1  0.22385296  0.70838071  0.00351933  1
  C  C159  1  0.10805838  0.73008251  0.00694005  1
  O  O160  1  0.47055269  0.60031120  0.40928771  1
  H  H161  1  0.48297971  0.74524687  0.29341674  1
  H  H162  1  0.27476839  0.72807767  0.22466776  1
  C  C163  1  0.36101986  0.50694754  0.46570859  1
  Zn  Zn164  1  0.11246222  0.73303885  0.49583204  1
  C  C165  1  0.00866550  0.52624562  0.15919191  1
  C  C166  1  0.00364698  0.68845823  0.20861905  1
  O  O167  1  0.36258395  0.61134655  0.62045923  1
  C  C168  1  0.27443639  0.58824499  0.62068457  1
  Zn  Zn169  1  0.08795047  0.58700961  0.73723243  1
  H  H170  1  0.42228865  0.73885535  0.77793110  1
  C  C171  1  0.04090798  0.65129972  0.96953743  1
  C  C172  1  0.45096821  0.74668019  0.83142412  1
  C  C173  1  0.27908882  0.54635670  0.56920237  1
  O  O174  1  0.42898528  0.64828483  0.80815373  1
  O  O175  1  0.04397658  0.66382578  0.52482336  1
  C  C176  1  0.16944021  0.73817789  0.84353405  1
  C  C177  1  0.14883607  0.63136104  0.97379993  1
  O  O178  1  0.26645622  0.56236195  0.97107299  1
  C  C179  1  0.17109649  0.57825361  0.96332302  1
  O  O180  1  0.18486999  0.60340940  0.64547667  1
  H  H181  1  0.12960033  0.51947090  0.61193251  1
  O  O182  1  0.09654029  0.54951894  0.94565928  1
  C  C183  1  0.36177958  0.54311569  0.51894681  1
  H  H184  1  0.47434518  0.52014331  0.67823593  1
  C  C185  1  0.19534058  0.51178795  0.57340627  1
  O  O186  1  0.09456969  0.65552347  0.78499372  1
  C  C187  1  0.49894959  0.71340512  0.87756596  1
  Zn  Zn188  1  0.45241639  0.65850413  0.69894949  1
  O  O189  1  0.33561511  0.71521116  0.64479868  1
  H  H190  1  0.22914327  0.70579173  0.84307101  1
  H  H191  1  0.43397394  0.56773199  0.51806029  1
  O  O192  1  0.42684667  0.73173018  0.54995884  1
  C  C193  1  0.04005425  0.69155906  0.76765665  1
  O  O194  1  0.08818319  0.51413743  0.76360777  1
  C  C195  1  0.01960370  0.69990894  0.98439030  1
  C  C196  1  0.07163162  0.73802667  0.80223932  1
  C  C197  1  0.49723313  0.66173126  0.85353014  1
  C  C198  1  0.36918531  0.74431324  0.60241211  1
  H  H199  1  0.32625974  0.64408219  0.99581435  1
  C  C200  1  0.24121546  0.65905200  0.99463581  1
  C  C201  1  0.17247638  0.85653847  0.07928149  1
  C  C202  1  0.03014367  0.87386421  0.44055039  1
  C  C203  1  0.28980891  0.78612388  0.05137191  1
  C  C204  1  0.13610383  0.89069751  0.44926013  1
  O  O205  1  0.07353626  0.95137335  0.17700953  1
  Zn  Zn206  1  0.31168578  0.95399548  0.08416224  1
  C  C207  1  0.12413289  0.98846405  0.18516732  1
  H  H208  1  0.20184186  0.86406044  0.43724525  1
  O  O209  1  0.44010859  0.93714779  0.16542940  1
  O  O210  1  0.07991864  0.87482628  0.08648749  1
  O  O211  1  0.26014061  0.87840044  0.09458301  1
  H  H212  1  0.36279044  0.80448339  0.06997941  1
  C  C213  1  0.16556289  0.93850620  0.46431104  1
  C  C214  1  0.09271006  0.77917892  0.02702356  1
  H  H215  1  0.31252544  0.98347300  0.25649971  1
  C  C216  1  0.06693008  0.97066664  0.46541672  1
  C  C217  1  0.18178866  0.80516327  0.05461445  1
  O  O218  1  0.08416195  0.79220454  0.42564774  1
  H  H219  1  0.34227625  0.92732935  0.48148615  1
  C  C220  1  0.27501992  0.95330955  0.47811109  1
  H  H221  1  0.48551628  0.98919862  0.39314842  1
  H  H222  1  0.00740610  0.79597100  0.02494132  1
  H  H223  1  0.47518381  0.79867218  0.18631267  1
  H  H224  1  0.49463438  0.86411954  0.00796506  1
  C  C225  1  0.00686693  0.82208709  0.42943383  1
  O  O226  1  0.20519006  0.99914601  0.14578056  1
  O  O227  1  0.06478731  0.77721317  0.58534335  1
  C  C228  1  0.03682217  0.81992240  0.83426652  1
  C  C229  1  0.16058675  0.86211010  0.92127864  1
  C  C230  1  0.07979660  0.87585209  0.59269189  1
  H  H231  1  0.18360787  0.95007912  0.80453889  1
  C  C232  1  0.13309211  0.81896495  0.88506327  1
  C  C233  1  0.34140204  0.89610331  0.63871180  1
  C  C234  1  0.19961153  0.77760249  0.88335242  1
  H  H235  1  0.38629340  0.82507733  0.76017676  1
  C  C236  1  0.10316404  0.92331324  0.60428272  1
  C  C237  1  0.41725492  0.83427709  0.81178856  1
  H  H238  1  0.13649918  0.85529240  0.55701508  1
  C  C239  1  0.34773610  0.79613296  0.62055633  1
  C  C240  1  0.28343171  0.96570978  0.70876639  1
  C  C241  1  0.11063265  0.94529542  0.96390818  1
  H  H242  1  0.38958986  0.90975201  0.79745271  1
  C  C243  1  0.27409731  0.86361866  0.68254902  1
  C  C244  1  0.41460588  0.88120223  0.83566927  1
  C  C245  1  0.27400306  0.81308603  0.67072780  1
  C  C246  1  0.44099558  0.89033643  0.90849310  1
  O  O247  1  0.38947003  0.97223273  0.89652093  1
  C  C248  1  0.41254692  0.82695106  0.57753938  1
  H  H249  1  0.17332192  0.94172998  0.58001328  1
  O  O250  1  0.20741852  0.95514059  0.98293510  1
  C  C251  1  0.34509595  0.94574256  0.65362027  1
  C  C252  1  0.21097909  0.88746504  0.73793005  1
  C  C253  1  0.40606159  0.87603155  0.58190511  1
  H  H254  1  0.46586089  0.89869491  0.55197939  1
  H  H255  1  0.22124258  0.78685060  0.70134328  1
  C  C256  1  0.09083330  0.90077198  0.91621687  1
  C  C257  1  0.22180391  0.93550296  0.75508296  1
  H  H258  1  0.16287965  0.86397153  0.77348761  1
  C  C259  1  0.45312188  0.79442575  0.85458731  1
  H  H260  1  0.23317509  0.86485690  0.95543362  1
  C  C261  1  0.43107071  0.94035757  0.93445559  1
  H  H262  1  0.39569267  0.96944024  0.62034544  1
  C  C263  1  0.02243309  0.95224020  0.64067253  1
  H  H264  1  0.28079062  0.77811876  0.91422515  1
  O  O265  1  0.46028862  0.94550960  0.99932294  1
  O  O266  1  0.03457420  0.97314812  0.98100839  1
  H  H267  1  0.47203732  0.80816627  0.54450245  1
  C  C268  1  0.00545398  0.77927490  0.79714404  1
  C  C269  1  0.48976859  0.80654212  0.92817647  1
  C  C270  1  0.47529850  0.85310371  0.95395539  1
  C  C271  1  0.94842619  0.04773543  0.33432678  1
  H  H272  1  0.65093717  0.03437479  0.21818054  1
  C  C273  1  0.57389209  0.03640174  0.24686950  1
  C  C274  1  0.83932924  0.14043352  0.22754924  1
  C  C275  1  0.56393989  0.07021545  0.30313453  1
  C  C276  1  0.72360411  0.11011047  0.10033771  1
  H  H277  1  0.74396972  0.08758373  0.30176445  1
  O  O278  1  0.78363653  0.01948893  0.04724365  1
  H  H279  1  0.78990676  0.01247939  0.36571354  1
  C  C280  1  0.74803060  0.16829077  0.20042883  1
  H  H281  1  0.88803823  0.15179627  0.27576716  1
  C  C282  1  0.81756403  0.02956048  0.10981607  1
  C  C283  1  0.71722929  0.21116038  0.23132802  1
  C  C284  1  0.86102842  0.09561095  0.19596292  1
  H  H285  1  0.52835215  0.09317883  0.14469987  1
  C  C286  1  0.86537427  0.15282215  0.49761965  1
  C  C287  1  0.80023674  0.08120239  0.13401366  1
  C  C288  1  0.57907319  0.22656700  0.13703359  1
  H  H289  1  0.93183642  0.07489467  0.21797420  1
  C  C290  1  0.68981596  0.15440728  0.13234700  1
  C  C291  1  0.60269934  0.18319951  0.10460870  1
  C  C292  1  0.63487885  0.13677450  0.36747288  1
  C  C293  1  0.84627264  0.04208366  0.37460585  1
  H  H294  1  0.69857883  0.16349603  0.37435963  1
  C  C295  1  0.52278939  0.14485111  0.38706778  1
  O  O296  1  0.57865976  0.22325903  0.43534721  1
  C  C297  1  0.89302308  0.11615641  0.43878330  1
  C  C298  1  0.82289091  0.07701124  0.42754838  1
  C  C299  1  0.65802632  0.09894288  0.32335177  1
  H  H300  1  0.75121085  0.07210687  0.46586977  1
  H  H301  1  0.55369737  0.17052910  0.05782236  1
  H  H302  1  0.67850033  0.09646331  0.05303678  1
  C  C303  1  0.63931074  0.24148437  0.19945688  1
  C  C304  1  0.53750017  0.03699343  0.47750538  1
  H  H305  1  0.77812874  0.22203577  0.27253973  1
  H  H306  1  0.99097365  0.20356762  0.21775516  1
  C  C307  1  0.98615283  0.12630030  0.39670066  1
  C  C308  1  0.50503826  0.19171500  0.42273330  1
  C  C309  1  0.98471515  0.01314732  0.28374792  1
  H  H310  1  0.50614937  0.24935964  0.11926554  1
  O  O311  1  0.64552055  0.22510473  0.63094339  1
  O  O312  1  0.92882247  0.18762828  0.50565353  1
  C  C313  1  0.62690429  0.23160227  0.69629698  1
  C  C314  1  0.96086307  0.02677518  0.67647434  1
  H  H315  1  0.69191157  0.00495972  0.62825189  1
  H  H316  1  0.83560941  0.22487202  0.83482084  1
  C  C317  1  0.58746381  0.08656221  0.58421460  1
  C  C318  1  0.95226559  0.21981048  0.71426599  1
  C  C319  1  0.94464159  0.08390370  0.89679046  1
  C  C320  1  0.59328017  0.04021331  0.54527343  1
  O  O321  1  0.87979369  0.10067424  0.70162351  1
  O  O322  1  0.64333354  0.19798719  0.73827425  1
  O  O323  1  0.56925952  0.02609392  0.82102324  1
  C  C324  1  0.96355116  0.08001436  0.67531393  1
  Zn  Zn325  1  0.76219030  0.15207680  0.65611397  1
  O  O326  1  0.78537281  0.14476929  0.53771685  1
  O  O327  1  0.64467909  0.09112613  0.63877709  1
  H  H328  1  0.79430232  0.03110967  0.73279302  1
  O  O329  1  0.89291231  0.18594498  0.73057325  1
  C  C330  1  0.91870993  0.11659833  0.95833400  1
  O  O331  1  0.52233636  0.11973387  0.56960672  1
  C  C332  1  0.86418794  0.00777288  0.71016909  1
  O  O333  1  0.93013481  0.04852304  0.86275986  1
  C  C334  1  0.98214841  0.15781479  0.98355654  1
  C  C335  1  0.64962504  0.00166113  0.57500927  1
  H  H336  1  0.84919585  0.10353078  0.99605039  1
  O  O337  1  0.67662051  0.00704348  0.91016879  1
  Zn  Zn338  1  0.63631047  0.29143293  0.39439190  1
  Zn  Zn339  1  0.57624355  0.39367815  0.21732025  1
  C  C340  1  0.61685289  0.28946717  0.22843736  1
  O  O341  1  0.82631991  0.40328079  0.26407177  1
  O  O342  1  0.86816342  0.26981320  0.13907021  1
  H  H343  1  0.69761175  0.34207470  0.01174913  1
  O  O344  1  0.70553506  0.42132117  0.03914524  1
  C  C345  1  0.93655013  0.47454291  0.33569259  1
  O  O346  1  0.66195866  0.42587711  0.29924675  1
  C  C347  1  0.94755699  0.28720456  0.16289049  1
  O  O348  1  0.55747187  0.31928086  0.19717422  1
  C  C349  1  0.76846093  0.43196048  0.29548258  1
  O  O350  1  0.66660802  0.30209647  0.28687085  1
  Zn  Zn351  1  0.96749489  0.32354773  0.26159753  1
  C  C352  1  0.82191896  0.47644700  0.32601612  1
  Zn  Zn353  1  0.85724116  0.48334003  0.15915698  1
  H  H354  1  0.59112256  0.40462814  0.43642976  1
  C  C355  1  0.68455252  0.46586294  0.09646086  1
  H  H356  1  0.71548337  0.47868759  0.46394002  1
  O  O357  1  0.60994570  0.45253938  0.14046223  1
  H  H358  1  0.98468802  0.44413183  0.31042472  1
  O  O359  1  0.93015324  0.34644001  0.38214771  1
  H  H360  1  0.95899472  0.41735028  0.43834104  1
  O  O361  1  0.80210534  0.29931917  0.42864940  1
  C  C362  1  0.86298440  0.33666476  0.42922885  1
  C  C363  1  0.85478804  0.36792197  0.49422123  1
  C  C364  1  0.91596856  0.40933137  0.48988531  1
  C  C365  1  0.54777116  0.41224258  0.48920854  1
  C  C366  1  0.66464139  0.48559350  0.51078466  1
  C  C367  1  0.56897433  0.42619344  0.77577067  1
  C  C368  1  0.80587078  0.38131015  0.61957149  1
  H  H369  1  0.58097990  0.39122404  0.64159757  1
  C  C370  1  0.78036862  0.38626113  0.93624972  1
  H  H371  1  0.74101700  0.26672505  0.95205210  1
  H  H372  1  0.59501203  0.30539205  0.61269116  1
  C  C373  1  0.58933283  0.36534046  0.68357817  1
  H  H374  1  0.60994433  0.26296156  0.83057275  1
  C  C375  1  0.84026632  0.39000590  0.87137161  1
  C  C376  1  0.95681700  0.30778381  0.73233072  1
  C  C377  1  0.80103753  0.35405254  0.55927422  1
  H  H378  1  0.85728172  0.42473657  0.85366785  1
  C  C379  1  0.58063480  0.34060152  0.81610699  1
  C  C380  1  0.90880045  0.44163680  0.54790384  1
  C  C381  1  0.58319077  0.37735234  0.75794174  1
  H  H382  1  0.77017960  0.36298981  0.66750745  1
  C  C383  1  0.92691550  0.34976409  0.76537764  1
  H  H384  1  0.57417198  0.45420766  0.73632467  1
  C  C385  1  0.60345643  0.29233800  0.79655220  1
  C  C386  1  0.77068430  0.29975604  0.92685531  1
  H  H387  1  0.77096092  0.31806235  0.56060843  1
  C  C388  1  0.85182861  0.42831401  0.61546126  1
  C  C389  1  0.61205519  0.28300893  0.72362404  1
  O  O390  1  0.79095253  0.46764117  0.95601042  1
  C  C391  1  0.59874856  0.31675985  0.66806047  1
  C  C392  1  0.50833827  0.46436487  0.59356355  1
  C  C393  1  0.75661906  0.42746148  0.98081113  1
  H  H394  1  0.78832877  0.44888181  0.72231531  1
  C  C395  1  0.82620522  0.30185363  0.85801348  1
  C  C396  1  0.83042393  0.46065770  0.67191179  1
  C  C397  1  0.57997134  0.45359974  0.53077309  1
  C  C398  1  0.86218357  0.34891469  0.83007034  1
  C  C399  1  0.85719941  0.26125945  0.81928586  1
  C  C400  1  0.74945780  0.34169837  0.96346678  1
  C  C401  1  0.92272014  0.26345850  0.75857407  1
  C  C402  1  0.54985904  0.43794048  0.84748889  1
  C  C403  1  0.55808886  0.35677973  0.88668197  1
  C  C404  1  0.94660807  0.48977067  0.54124763  1
  C  C405  1  0.52053785  0.48996159  0.86058516  1
  H  H406  1  0.55866639  0.33255825  0.93286051  1
  H  H407  1  0.94729894  0.38378069  0.74115477  1
  C  C408  1  0.53512948  0.40384302  0.90050562  1
  H  H409  1  0.50307562  0.41617791  0.95283670  1
  H  H410  1  0.55183086  0.63243471  0.26525668  1
  C  C411  1  0.80101660  0.55006662  0.38756238  1
  O  O412  1  0.59141352  0.69868595  0.40199594  1
  H  H413  1  0.92213172  0.69769611  0.10482447  1
  C  C414  1  0.78376436  0.62072387  0.45869143  1
  C  C415  1  0.53054398  0.64508210  0.12514994  1
  C  C416  1  0.72764231  0.66718422  0.13220926  1
  C  C417  1  0.79645099  0.55318112  0.13474425  1
  H  H418  1  0.91993579  0.59004246  0.19207942  1
  C  C419  1  0.91236232  0.68672752  0.16157806  1
  C  C420  1  0.80346817  0.64735754  0.25837382  1
  O  O421  1  0.76821417  0.71611491  0.39961292  1
  C  C422  1  0.88901539  0.64940259  0.30517140  1
  C  C423  1  0.98716154  0.51393363  0.36298155  1
  O  O424  1  0.61645623  0.64817697  0.16528253  1
  H  H425  1  0.73408876  0.58137018  0.14626620  1
  H  H426  1  0.72411122  0.63182234  0.27421105  1
  C  C427  1  0.81392491  0.66774751  0.18762513  1
  C  C428  1  0.90607910  0.55482381  0.16951468  1
  C  C429  1  0.73116044  0.58460287  0.42033826  1
  O  O430  1  0.73457543  0.67748111  0.07083401  1
  C  C431  1  0.66711940  0.73992534  0.29888558  1
  H  H432  1  0.63859803  0.58336978  0.41363738  1
  C  C433  1  0.90089510  0.61629566  0.47192650  1
  C  C434  1  0.92383617  0.54982835  0.40005188  1
  H  H435  1  0.88154727  0.63647433  0.36142534  1
  H  H436  1  0.56800499  0.65668940  0.07159336  1
  H  H437  1  0.73499207  0.59928917  0.00054189  1
  C  C438  1  0.67427130  0.71527999  0.37107376  1
  C  C439  1  0.74840976  0.51542140  0.08252563  1
  C  C440  1  0.75128407  0.51386731  0.34723728  1
  C  C441  1  0.97670968  0.58486084  0.44313603  1
  H  H442  1  0.73575090  0.65092986  0.48083914  1
  Zn  Zn443  1  0.59667315  0.52146269  0.02614253  1
  C  C444  1  0.98847204  0.67262147  0.28515905  1
  C  C445  1  0.77614495  0.51916463  0.00123837  1
  H  H446  1  0.85066564  0.74049253  0.28202920  1
  H  H447  1  0.52304408  0.52220739  0.41047520  1
  H  H448  1  0.65964172  0.50930983  0.33895874  1
  H  H449  1  0.98755311  0.50200219  0.49129590  1
  Zn  Zn450  1  0.93421739  0.54418420  0.98291988  1
  C  C451  1  0.54619185  0.72432858  0.94441155  1
  C  C452  1  0.61386679  0.53647679  0.61091569  1
  H  H453  1  0.74048653  0.55429668  0.53248551  1
  H  H454  1  0.95090821  0.55774754  0.58495061  1
  C  C455  1  0.66335835  0.72200822  0.72984927  1
  C  C456  1  0.85522451  0.54573629  0.71659601  1
  H  H457  1  0.58051142  0.69691849  0.98397716  1
  C  C458  1  0.63555598  0.58354624  0.64532441  1
  O  O459  1  0.56236689  0.63141449  0.88279547  1
  C  C460  1  0.67812347  0.52744506  0.54868127  1
  O  O461  1  0.72243401  0.68947927  0.75164409  1
  O  O462  1  0.57948768  0.59319381  0.70023224  1
  C  C463  1  0.94109028  0.65742575  0.51843511  1
  C  C464  1  0.86957608  0.50681778  0.66186927  1
  O  O465  1  0.58108653  0.71386427  0.69115527  1
  O  O466  1  0.70208622  0.61213428  0.61689583  1
  Zn  Zn467  1  0.83799269  0.65257810  0.67049333  1
  O  O468  1  0.79423006  0.53370875  0.76651315  1
  Zn  Zn469  1  0.65751825  0.57913757  0.81821995  1
  O  O470  1  0.87645994  0.68244744  0.55549492  1
  O  O471  1  0.78282865  0.58739699  0.90488317  1
  O  O472  1  0.90655643  0.58539801  0.71524251  1
  C  C473  1  0.78201503  0.57388379  0.96605805  1
  C  C474  1  0.92550856  0.51900663  0.59745674  1
  H  H475  1  0.98195552  0.62345272  0.95257041  1
  O  O476  1  0.96596061  0.69659364  0.72222972  1
  H  H477  1  0.93513926  0.71412203  0.97991631  1
  O  O478  1  0.54463829  0.51746067  0.81254272  1
  H  H479  1  0.77548605  0.74479542  0.84055103  1
  C  C480  1  0.52647554  0.50821558  0.63077596  1
  C  C481  1  0.95654619  0.95216712  0.45510945  1
  H  H482  1  0.84819821  0.89155709  0.43498613  1
  C  C483  1  0.50633509  0.97165189  0.17300531  1
  C  C484  1  0.93559672  0.90432301  0.44424243  1
  C  C485  1  0.86411370  0.79391277  0.16315336  1
  C  C486  1  0.76626781  0.77695764  0.20107823  1
  C  C487  1  0.65745551  0.83566132  0.12363134  1
  O  O488  1  0.67283729  0.90800874  0.01445334  1
  C  C489  1  0.57115918  0.90511709  0.44288035  1
  C  C490  1  0.76223592  0.88945429  0.03609050  1
  C  C491  1  0.85530442  0.83078095  0.11676868  1
  C  C492  1  0.75583510  0.85288317  0.09710069  1
  O  O493  1  0.59170363  0.97589134  0.13524884  1
  Zn  Zn494  1  0.61715736  0.98787708  0.01955023  1
  H  H495  1  0.93878234  0.97838883  0.27793706  1
  H  H496  1  0.52181309  0.89694775  0.39629450  1
  C  C497  1  0.55382553  0.78267059  0.20513520  1
  O  O498  1  0.52424091  0.81218653  0.41716153  1
  C  C499  1  0.59277884  0.81825941  0.46470029  1
  H  H500  1  0.57536772  0.84940771  0.11685170  1
  H  H501  1  0.93230583  0.84996571  0.09893845  1
  C  C502  1  0.65823259  0.79895015  0.17607151  1
  C  C503  1  0.52932645  0.99231460  0.44394619  1
  O  O504  1  0.90914063  0.80873749  0.43094332  1
  Zn  Zn505  1  0.95884660  0.94450344  0.08672319  1
  H  H506  1  0.57739016  0.77680679  0.02503013  1
  C  C507  1  0.58410900  0.95095157  0.47243411  1
  C  C508  1  0.61974246  0.86829406  0.48258677  1
  H  H509  1  0.94372837  0.77860289  0.17834698  1
  O  O510  1  0.85448383  0.90173767  0.01257931  1
  C  C511  1  0.76801362  0.75047259  0.26467884  1
  H  H512  1  0.87836151  0.97503329  0.46172471  1
  O  O513  1  0.86409445  0.99881080  0.14569409  1
  C  C514  1  0.56524699  0.75261897  0.26700272  1
  O  O515  1  0.62850348  0.78086517  0.49404132  1
  Zn  Zn516  1  0.81035709  0.75917855  0.48922467  1
  C  C517  1  0.70447456  0.91842396  0.57003635  1
  O  O518  1  0.88161936  0.78599029  0.59038534  1
  H  H519  1  0.73334468  0.84456297  0.57273942  1
  C  C520  1  0.99306101  0.89951432  0.87463075  1
  C  C521  1  0.74054062  0.78020429  0.81810954  1
  H  H522  1  0.80075371  0.82632797  0.90141637  1
  H  H523  1  0.77477641  0.94058129  0.72746579  1
  H  H524  1  0.57469503  0.80455187  0.67584665  1
  C  C525  1  0.69910153  0.86524103  0.81809324  1
  C  C526  1  0.63202061  0.81263165  0.71678958  1
  C  C527  1  0.75041336  0.82353798  0.85070817  1
  H  H528  1  0.93558957  0.77584462  0.76283962  1
  H  H529  1  0.83425137  0.85760989  0.67146663  1
  C  C530  1  0.58577257  0.89997041  0.71757033  1
  H  H531  1  0.93579485  0.92800845  0.87629862  1
  C  C532  1  0.69030861  0.87407225  0.54448831  1
  C  C533  1  0.63833878  0.85928336  0.74918391  1
  C  C534  1  0.58040225  0.94250558  0.75491796  1
  H  H535  1  0.75834831  0.92168479  0.61998297  1
  C  C536  1  0.90822506  0.87844213  0.65434524  1
  H  H537  1  0.74967309  0.91889660  0.90080406  1
  H  H538  1  0.52552824  0.97048444  0.73858150  1
  C  C539  1  0.54405777  0.77030848  0.96920829  1
  C  C540  1  0.64161840  0.94827104  0.81841585  1
  C  C541  1  0.70489096  0.91143182  0.84839372  1
  C  C542  1  0.84926928  0.95896439  0.70850479  1
  C  C543  1  0.97185246  0.86262938  0.82549435  1
  C  C544  1  0.92316422  0.92756464  0.67137021  1
  H  H545  1  0.90196692  0.86319655  0.78816179  1
  C  C546  1  0.64762103  0.95839568  0.54070011  1
  H  H547  1  0.53850295  0.89586720  0.66808150  1
  C  C548  1  0.68200182  0.77376261  0.75220550  1
  C  C549  1  0.98063174  0.79962167  0.60037244  1
  C  C550  1  0.63188867  0.99761968  0.85071086  1
  C  C551  1  0.98692951  0.85212350  0.62214498  1
