# generated using pymatgen
data_Zn2H8C15O7
_symmetry_space_group_name_H-M   'P 1'
_cell_length_a   11.58769344
_cell_length_b   18.79316608
_cell_length_c   29.29030466
_cell_angle_alpha   90.00000000
_cell_angle_beta   90.00000000
_cell_angle_gamma   90.00000000
_symmetry_Int_Tables_number   1
_chemical_formula_structural   Zn2H8C15O7
_chemical_formula_sum   'Zn32 H128 C240 O112'
_cell_volume   6378.53345629
_cell_formula_units_Z   16
loop_
 _symmetry_equiv_pos_site_id
 _symmetry_equiv_pos_as_xyz
  1  'x, y, z'
loop_
 _atom_site_type_symbol
 _atom_site_label
 _atom_site_symmetry_multiplicity
 _atom_site_fract_x
 _atom_site_fract_y
 _atom_site_fract_z
 _atom_site_occupancy
  O  O0  1  0.33298173  0.12783023  0.07383394  1
  C  C1  1  0.00181418  0.06520935  0.13097217  1
  O  O2  1  0.32583676  0.36664833  0.18961518  1
  C  C3  1  0.11615075  0.22630998  0.00413412  1
  O  O4  1  0.20502315  0.20724529  0.09505888  1
  C  C5  1  0.32681767  0.30734380  0.20338448  1
  O  O6  1  0.05731643  0.41805003  0.23127608  1
  C  C7  1  0.20454778  0.17923601  0.01765498  1
  O  O8  1  0.38784073  0.10512127  0.19343707  1
  Zn  Zn9  1  0.41008136  0.40252685  0.10786807  1
  Zn  Zn10  1  0.02141057  0.21188742  0.10875089  1
  H  H11  1  0.37207697  0.15443715  0.19814721  1
  H  H12  1  0.06400701  0.24959505  0.03123943  1
  C  C13  1  0.25363317  0.16869664  0.06627070  1
  O  O14  1  0.23322256  0.40220808  0.08065433  1
  O  O15  1  0.13525062  0.48139581  0.04036176  1
  C  C16  1  0.09927382  0.01895181  0.11504950  1
  H  H17  1  0.31891121  0.30558026  0.04313191  1
  C  C18  1  0.19413665  0.42879468  0.04324621  1
  O  O19  1  0.49884026  0.31586017  0.07937247  1
  H  H20  1  0.07699473  0.02765453  0.04151491  1
  C  C21  1  0.12626756  0.00191210  0.06924844  1
  O  O22  1  0.32811179  0.24868160  0.21533736  1
  Zn  Zn23  1  0.46611160  0.10916294  0.12783799  1
  C  C24  1  0.28907239  0.32722743  0.00980517  1
  H  H25  1  0.46780437  0.22142116  0.41134353  1
  C  C26  1  0.05088948  0.16761197  0.30975814  1
  C  C27  1  0.00608920  0.38916066  0.35150150  1
  C  C28  1  0.34940002  0.05183259  0.38593075  1
  C  C29  1  0.34258986  0.15637299  0.45239472  1
  C  C30  1  0.03367325  0.42864809  0.27343272  1
  C  C31  1  0.32689350  0.28332816  0.48570465  1
  O  O32  1  0.06371749  0.15565139  0.26915807  1
  O  O33  1  0.03540962  0.49112411  0.28849720  1
  C  C34  1  0.03148914  0.26336981  0.36920156  1
  H  H35  1  0.35383006  0.01492571  0.35773820  1
  C  C36  1  0.47696187  0.12728667  0.33601467  1
  C  C37  1  0.41628707  0.17004742  0.41454212  1
  C  C38  1  0.26930270  0.04586640  0.42077109  1
  C  C39  1  0.26854467  0.09706702  0.45472433  1
  C  C40  1  0.40997925  0.11666327  0.38209082  1
  O  O41  1  0.21996242  0.03096978  0.28839586  1
  C  C42  1  0.42433906  0.42024714  0.39905713  1
  O  O43  1  0.48119335  0.07157612  0.30947154  1
  H  H44  1  0.06222595  0.28755680  0.25486249  1
  H  H45  1  0.21859758  0.08521899  0.29034981  1
  C  C46  1  0.04482523  0.29968344  0.28975148  1
  C  C47  1  0.43935833  0.46461666  0.49448984  1
  H  H48  1  0.41529096  0.40340227  0.36345098  1
  H  H49  1  0.31181965  0.30436125  0.45045055  1
  C  C50  1  0.02914207  0.36801912  0.30719250  1
  C  C51  1  0.04092267  0.24776730  0.32324141  1
  H  H52  1  0.04194171  0.25581316  0.45847279  1
  O  O53  1  0.03949787  0.11634008  0.33670937  1
  H  H54  1  0.20307941  0.09113510  0.48139401  1
  C  C55  1  0.00602350  0.33305212  0.38437678  1
  C  C56  1  0.34835067  0.20789071  0.49383565  1
  H  H57  1  0.04042510  0.21858600  0.39410414  1
  C  C58  1  0.37388327  0.48064471  0.41643833  1
  C  C59  1  0.01522355  0.30909091  0.46727186  1
  Zn  Zn60  1  0.36927874  0.05162671  0.25406341  1
  O  O61  1  0.41354152  0.39299431  0.70077441  1
  Zn  Zn62  1  0.36181917  0.06941045  0.68338994  1
  O  O63  1  0.09508875  0.33498458  0.71707329  1
  C  C64  1  0.42488948  0.44694627  0.62529386  1
  C  C65  1  0.45689476  0.43500087  0.58016778  1
  C  C66  1  0.32416920  0.30033292  0.57132594  1
  C  C67  1  0.30845549  0.32353573  0.52543952  1
  H  H68  1  0.32141185  0.33612530  0.60097249  1
  C  C69  1  0.15200578  0.03966179  0.62499406  1
  O  O70  1  0.12753006  0.07549578  0.59145327  1
  H  H71  1  0.04208453  0.14558669  0.66362274  1
  H  H72  1  0.40773391  0.12804113  0.54857629  1
  C  C73  1  0.36411000  0.22957146  0.57563630  1
  C  C74  1  0.36483611  0.20714470  0.62714452  1
  O  O75  1  0.05103355  0.22065625  0.54923612  1
  O  O76  1  0.42254681  0.15190463  0.63922786  1
  O  O77  1  0.30754313  0.24002510  0.65679006  1
  O  O78  1  0.20567359  0.07075080  0.65822625  1
  C  C79  1  0.37686499  0.18317471  0.53895038  1
  Zn  Zn80  1  0.38011653  0.28094897  0.72211306  1
  H  H81  1  0.29285256  0.37852777  0.51892830  1
  C  C82  1  0.46116241  0.39487322  0.66256949  1
  Zn  Zn83  1  0.12787681  0.27783935  0.65394601  1
  C  C84  1  0.03418269  0.28649359  0.55576294  1
  O  O85  1  0.03395547  0.31234091  0.59517520  1
  O  O86  1  0.31286495  0.01775088  0.74784825  1
  H  H87  1  0.37242502  0.01920464  0.55777102  1
  C  C88  1  0.45916108  0.01330672  0.54240581  1
  C  C89  1  0.42406648  0.48428211  0.54471847  1
  C  C90  1  0.00744333  0.33004864  0.51336408  1
  C  C91  1  0.26145031  0.13604250  0.98612334  1
  C  C92  1  0.22874129  0.37559526  0.91959115  1
  C  C93  1  0.18963219  0.35161559  0.83500943  1
  C  C94  1  0.32950882  0.29499178  0.96896257  1
  O  O95  1  0.14703250  0.02899000  0.78020988  1
  C  C96  1  0.09985340  0.45430823  0.86959936  1
  C  C97  1  0.25321160  0.03603255  0.78132336  1
  C  C98  1  0.09685338  0.23862886  0.95745688  1
  C  C99  1  0.03871752  0.46729169  0.82905834  1
  H  H100  1  0.25098498  0.30669891  0.83345293  1
  C  C101  1  0.25529881  0.09524740  0.86250347  1
  C  C102  1  0.23853071  0.14983313  0.93959120  1
  C  C103  1  0.15662426  0.20002534  0.92279860  1
  C  C104  1  0.31172188  0.05932423  0.82683195  1
  C  C105  1  0.42248466  0.08711119  0.91094486  1
  H  H106  1  0.05284477  0.28490773  0.94547528  1
  H  H107  1  0.34414801  0.28519435  0.89516711  1
  C  C108  1  0.05323352  0.42346082  0.79136022  1
  C  C109  1  0.30975131  0.31821149  0.92402729  1
  C  C110  1  0.22763566  0.38967285  0.99922659  1
  C  C111  1  0.17266297  0.39547058  0.87347526  1
  H  H112  1  0.12268396  0.45728383  0.95377779  1
  H  H113  1  0.39137409  0.25285782  0.97308357  1
  C  C114  1  0.12916814  0.36596471  0.79500984  1
  C  C115  1  0.42687508  0.04330039  0.83215989  1
  C  C116  1  0.18847212  0.41308652  0.95705719  1
  H  H117  1  0.16360354  0.11040914  0.85913062  1
  C  C118  1  0.30844010  0.10874334  0.90386543  1
  H  H119  1  0.14320680  0.21041084  0.88679401  1
  H  H120  1  0.01819716  0.43879128  0.75654933  1
  H  H121  1  0.46181076  0.09722668  0.94470771  1
  H  H122  1  0.45986340  0.01250170  0.80404677  1
  C  C123  1  0.48021096  0.05459883  0.87546867  1
  H  H124  1  0.09174501  0.49326879  0.89777314  1
  H  H125  1  0.32868041  0.09954957  0.99720455  1
  O  O126  1  0.21432636  0.26759462  0.75401722  1
  C  C127  1  0.14696002  0.32136573  0.75276666  1
  Zn  Zn128  1  0.44516145  0.79212932  0.19001075  1
  O  O129  1  0.38418652  0.70571550  0.22297943  1
  H  H130  1  0.21132898  0.75921896  0.08408744  1
  H  H131  1  0.37137386  0.89766401  0.08848622  1
  H  H132  1  0.43291931  0.96295538  0.01721205  1
  C  C133  1  0.40906207  0.63919543  0.21580843  1
  H  H134  1  0.14849852  0.81655033  0.00803802  1
  C  C135  1  0.34412320  0.54372654  0.08658639  1
  C  C136  1  0.19199040  0.76407026  0.00990926  1
  C  C137  1  0.28041895  0.66154765  0.05207250  1
  C  C138  1  0.26701241  0.95623105  0.13978756  1
  C  C139  1  0.22413905  0.73135957  0.05189161  1
  C  C140  1  0.40186330  0.53264455  0.17039126  1
  C  C141  1  0.22481961  0.96041879  0.05869011  1
  O  O142  1  0.29738003  0.85925276  0.19789688  1
  C  C143  1  0.29656090  0.93368003  0.09572889  1
  O  O144  1  0.03555489  0.81924799  0.15610845  1
  C  C145  1  0.32611239  0.92318060  0.18660859  1
  C  C146  1  0.32593777  0.61978041  0.09197714  1
  H  H147  1  0.32442446  0.71123621  0.13940689  1
  O  O148  1  0.09690890  0.62917497  0.24831605  1
  O  O149  1  0.39918547  0.95381789  0.21087201  1
  C  C150  1  0.24459877  0.94284198  0.00838542  1
  C  C151  1  0.38226658  0.60966208  0.17125736  1
  C  C152  1  0.34462262  0.65378413  0.13390667  1
  Zn  Zn153  1  0.13742733  0.84720816  0.22489410  1
  C  C154  1  0.31352042  0.63227569  0.00883811  1
  C  C155  1  0.16745039  0.99267324  0.15123693  1
  H  H156  1  0.13881797  0.99930587  0.18688159  1
  H  H157  1  0.36964486  0.58903362  0.00850607  1
  C  C158  1  0.04004190  0.68612812  0.24633877  1
  H  H159  1  0.32698600  0.51682917  0.05461385  1
  O  O160  1  0.46958443  0.60802250  0.24571626  1
  H  H161  1  0.43135666  0.50239166  0.20053514  1
  C  C162  1  0.38382683  0.50691763  0.12627054  1
  Zn  Zn163  1  0.29808100  0.69727128  0.39216887  1
  C  C164  1  0.38188224  0.50632810  0.46147587  1
  O  O165  1  0.25793582  0.58102365  0.40533815  1
  H  H166  1  0.35278066  0.79784622  0.45836379  1
  C  C167  1  0.29435914  0.52670573  0.38631363  1
  C  C168  1  0.45112191  0.82336095  0.35697644  1
  C  C169  1  0.48366077  0.69069927  0.48692627  1
  H  H170  1  0.39518367  0.97450109  0.47730860  1
  H  H171  1  0.06104543  0.55991827  0.42662343  1
  Zn  Zn172  1  0.17748683  0.56681471  0.30057084  1
  H  H173  1  0.33750516  0.55556181  0.47296271  1
  O  O174  1  0.28401003  0.65992982  0.31726906  1
  O  O175  1  0.15850067  0.94225450  0.39437241  1
  O  O176  1  0.44986812  0.67591616  0.44566265  1
  O  O177  1  0.36319174  0.80572876  0.38004787  1
  O  O178  1  0.46560687  0.79740091  0.31858076  1
  H  H179  1  0.24440973  0.69168717  0.29673546  1
  O  O180  1  0.10365856  0.89035711  0.29089696  1
  O  O181  1  0.16834947  0.75084603  0.43666979  1
  C  C182  1  0.37034522  0.80031270  0.49537841  1
  H  H183  1  0.44512278  0.89725640  0.43940327  1
  Zn  Zn184  1  0.46314408  0.68576952  0.30119123  1
  C  C185  1  0.06468296  0.76796496  0.42695727  1
  C  C186  1  0.03317552  0.57774523  0.46066292  1
  O  O187  1  0.13436355  0.98106091  0.46314020  1
  H  H188  1  0.17697469  0.89292688  0.30918419  1
  O  O189  1  0.27860410  0.51377802  0.34467132  1
  C  C190  1  0.17926485  0.98427114  0.42604186  1
  O  O191  1  0.07452929  0.74187461  0.26742337  1
  Zn  Zn192  1  0.08465063  0.99249530  0.33082732  1
  O  O193  1  0.02013453  0.75529120  0.38936269  1
  C  C194  1  0.47267256  0.98698971  0.49842173  1
  C  C195  1  0.14775239  0.80985711  0.70900902  1
  C  C196  1  0.46106864  0.78056053  0.66586422  1
  C  C197  1  0.47270133  0.72969338  0.74232606  1
  C  C198  1  0.36137777  0.54538991  0.55940797  1
  C  C199  1  0.07400768  0.93003389  0.58735258  1
  C  C200  1  0.03786809  0.58034967  0.54482192  1
  C  C201  1  0.43272542  0.82360693  0.58680488  1
  H  H202  1  0.32286321  0.91902761  0.58554457  1
  O  O203  1  0.19213255  0.60727618  0.65625353  1
  C  C204  1  0.24649236  0.61279962  0.61831183  1
  C  C205  1  0.13614057  0.85240027  0.66418430  1
  H  H206  1  0.26999720  0.89512309  0.50076779  1
  C  C207  1  0.15629630  0.92452571  0.66474061  1
  H  H208  1  0.06029610  0.75995858  0.63087007  1
  Zn  Zn209  1  0.25732862  0.64826182  0.72079740  1
  H  H210  1  0.18758617  0.94868365  0.69644630  1
  C  C211  1  0.04802238  0.80906709  0.50815894  1
  H  H212  1  0.06617629  0.55601991  0.57812973  1
  H  H213  1  0.42867247  0.72707174  0.65360764  1
  H  H214  1  0.04525730  0.96102985  0.55681855  1
  C  C215  1  0.08237240  0.81810543  0.62751028  1
  C  C216  1  0.12634674  0.96285233  0.62539421  1
  C  C217  1  0.35437282  0.87290099  0.56706953  1
  C  C218  1  0.43953515  0.74863978  0.51727118  1
  O  O219  1  0.23308867  0.66188700  0.59345796  1
  H  H220  1  0.14027571  0.80435732  0.51112120  1
  H  H221  1  0.33212979  0.58811764  0.53627381  1
  O  O222  1  0.13300810  0.74420917  0.70844717  1
  C  C223  1  0.05077888  0.85718685  0.58891731  1
  C  C224  1  0.32726710  0.55047354  0.60482120  1
  C  C225  1  0.46220772  0.83931356  0.63636424  1
  O  O226  1  0.42925725  0.67326814  0.72804427  1
  C  C227  1  0.32679456  0.85764285  0.52119923  1
  C  C228  1  0.46361780  0.76213552  0.56310467  1
  C  C229  1  0.49587350  0.79161651  0.71030874  1
  C  C230  1  0.35487217  0.50390514  0.63940681  1
  H  H231  1  0.32779248  0.51243042  0.67471701  1
  O  O232  1  0.18014350  0.84197804  0.74303805  1
  H  H233  1  0.15418615  0.51431134  0.50458657  1
  C  C234  1  0.08295540  0.55664886  0.50320068  1
  O  O235  1  0.36623312  0.57671354  0.92071962  1
  C  C236  1  0.17657490  0.91837907  0.93239329  1
  O  O237  1  0.11361529  0.91363822  0.85887970  1
  C  C238  1  0.30127480  0.63103690  0.92214590  1
  C  C239  1  0.27458615  0.66223203  0.96875021  1
  O  O240  1  0.06157866  0.74223936  0.81040651  1
  C  C241  1  0.20541147  0.72660664  0.96913354  1
  Zn  Zn242  1  0.12317062  0.65076030  0.84064146  1
  C  C243  1  0.14871855  0.92695630  0.97911526  1
  O  O244  1  0.26961577  0.66123475  0.88605431  1
  H  H245  1  0.17698372  0.74196810  0.93466552  1
  H  H246  1  0.11295584  0.75863348  0.78715573  1
  O  O247  1  0.22250918  0.62766414  0.78411560  1
  H  H248  1  0.28867506  0.65633992  0.79146585  1
  C  C249  1  0.38179182  0.94103965  0.94559378  1
  C  C250  1  0.07851288  0.91102983  0.90000827  1
  C  C251  1  0.28664589  0.92754114  0.91569759  1
  H  H252  1  0.30086792  0.92417962  0.87912669  1
  Zn  Zn253  1  0.07795603  0.91914758  0.78647688  1
  H  H254  1  0.46846554  0.94378618  0.93077129  1
  H  H255  1  0.05837712  0.92199293  0.98988272  1
  C  C256  1  0.36214961  0.95001217  0.99338102  1
  H  H257  1  0.90921374  0.25017709  0.17191171  1
  C  C258  1  0.89563110  0.34352301  0.08165865  1
  O  O259  1  0.90786380  0.38161803  0.11617022  1
  O  O260  1  0.90155149  0.27646848  0.08570748  1
  C  C261  1  0.61308152  0.15041124  0.03583034  1
  Zn  Zn262  1  0.91589790  0.14466874  0.21660808  1
  C  C263  1  0.53289538  0.25301714  0.08136474  1
  C  C264  1  0.87260748  0.44415851  0.02516269  1
  H  H265  1  0.61762943  0.11737970  0.06788324  1
  C  C266  1  0.78061512  0.28931948  0.24255234  1
  C  C267  1  0.67972770  0.45669713  0.11777589  1
  C  C268  1  0.87738393  0.37121258  0.03402065  1
  O  O269  1  0.53722663  0.21482364  0.11590206  1
  O  O270  1  0.80209852  0.33115972  0.20950049  1
  H  H271  1  0.66477444  0.40302355  0.12961571  1
  O  O272  1  0.61466735  0.04308043  0.12830937  1
  C  C273  1  0.57103385  0.22010103  0.03680091  1
  H  H274  1  0.76839623  0.48619979  0.17988900  1
  O  O275  1  0.77542056  0.22377325  0.23839777  1
  H  H276  1  0.62564657  0.43502879  0.04935116  1
  C  C277  1  0.65246009  0.47699672  0.07258872  1
  H  H278  1  0.87902434  0.48674579  0.05177479  1
  O  O279  1  0.99506787  0.06932752  0.17425144  1
  O  O280  1  0.82084701  0.05300272  0.24271876  1
  Zn  Zn281  1  0.97436083  0.36707267  0.18226884  1
  O  O282  1  0.94121501  0.10120741  0.10453062  1
  O  O283  1  0.99276379  0.24477049  0.17449334  1
  H  H284  1  0.88260341  0.26381805  0.00830368  1
  O  O285  1  0.52863517  0.17892262  0.32566494  1
  C  C286  1  0.73427306  0.36686672  0.38043383  1
  C  C287  1  0.74067360  0.24625400  0.41043100  1
  C  C288  1  0.72951183  0.41390482  0.34284143  1
  C  C289  1  0.93390937  0.44240319  0.48974051  1
  H  H290  1  0.78195564  0.21348972  0.31702346  1
  C  C291  1  0.74091892  0.27052914  0.45678328  1
  C  C292  1  0.74978188  0.29418806  0.36920015  1
  C  C293  1  0.64193041  0.15839324  0.47966336  1
  C  C294  1  0.76887119  0.31916676  0.28932545  1
  H  H295  1  0.72192239  0.15616998  0.36745833  1
  H  H296  1  0.77763069  0.32193057  0.46855668  1
  H  H297  1  0.91803015  0.46450070  0.41697768  1
  C  C298  1  0.65702232  0.13156205  0.43578296  1
  C  C299  1  0.77011756  0.26863477  0.32514411  1
  C  C300  1  0.71115451  0.17351450  0.40227913  1
  C  C301  1  0.75192678  0.39113866  0.29814245  1
  H  H302  1  0.71352097  0.38600431  0.41419722  1
  C  C303  1  0.68451252  0.22916903  0.48948658  1
  H  H304  1  0.61708335  0.08026436  0.42650437  1
  H  H305  1  0.75812010  0.42930565  0.26945120  1
  C  C306  1  0.93973834  0.42547184  0.44309679  1
  C  C307  1  0.71347176  0.49182831  0.35226492  1
  C  C308  1  0.97843334  0.35399661  0.43159512  1
  H  H309  1  0.55076544  0.33822127  0.42343937  1
  H  H310  1  0.55217748  0.36900304  0.49960217  1
  H  H311  1  0.82160562  0.04777853  0.27502712  1
  H  H312  1  0.98432910  0.44580432  0.36068397  1
  C  C313  1  0.50160141  0.38558490  0.43057449  1
  C  C314  1  0.50774397  0.40596961  0.47639945  1
  H  H315  1  0.89664630  0.49462926  0.49925238  1
  O  O316  1  0.69986678  0.48713809  0.70580662  1
  O  O317  1  0.54618825  0.04052815  0.68754698  1
  C  C318  1  0.76357532  0.06021314  0.58063658  1
  Zn  Zn319  1  0.88038132  0.20622619  0.70625033  1
  O  O320  1  0.86666491  0.06878347  0.56755593  1
  O  O321  1  0.73569220  0.07704335  0.61990200  1
  C  C322  1  0.55522112  0.03487169  0.56893581  1
  O  O323  1  0.67927643  0.31526142  0.54836583  1
  O  O324  1  0.60847377  0.21273158  0.56481817  1
  Zn  Zn325  1  0.61160380  0.17008021  0.63467222  1
  O  O326  1  0.51813022  0.34146804  0.65047053  1
  C  C327  1  0.65907808  0.25161209  0.53708620  1
  Zn  Zn328  1  0.68988308  0.34003286  0.62232377  1
  O  O329  1  0.74601739  0.44653239  0.63558713  1
  O  O330  1  0.73112341  0.23837625  0.66029046  1
  O  O331  1  0.79022537  0.11610165  0.73259242  1
  H  H332  1  0.70205359  0.25690884  0.68755051  1
  H  H333  1  0.95940804  0.41137658  0.56162596  1
  H  H334  1  0.59254054  0.13034939  0.50688125  1
  C  C335  1  0.96909779  0.39693183  0.52634111  1
  H  H336  1  0.75093437  0.08545823  0.71186850  1
  O  O337  1  0.99599947  0.19044513  0.65642295  1
  C  C338  1  0.66663704  0.03151919  0.55096123  1
  H  H339  1  0.53913915  0.06470763  0.60018401  1
  O  O340  1  0.83279080  0.29674203  0.74372570  1
  H  H341  1  0.50144384  0.38337947  0.57105887  1
  Zn  Zn342  1  0.98363391  0.14765522  0.59390878  1
  C  C343  1  0.73357693  0.49467234  0.66504775  1
  C  C344  1  0.68610094  0.00318169  0.50785245  1
  C  C345  1  0.57748605  0.33195689  0.82601127  1
  C  C346  1  0.55152533  0.21350343  0.79018634  1
  C  C347  1  0.59777416  0.37591138  0.86465859  1
  C  C348  1  0.86789643  0.22155081  0.91403035  1
  O  O349  1  0.80153301  0.38954435  0.78425597  1
  C  C350  1  0.86657107  0.34495224  0.95314186  1
  H  H351  1  0.57396783  0.17034986  0.87539224  1
  C  C352  1  0.57580998  0.26039478  0.83148397  1
  H  H353  1  0.84585732  0.38277795  0.86214642  1
  C  C354  1  0.60129891  0.27089086  0.91295611  1
  C  C355  1  0.85400658  0.28797948  0.82692360  1
  C  C356  1  0.85819549  0.32690355  0.86697842  1
  H  H357  1  0.70269888  0.06472022  0.99570110  1
  C  C358  1  0.87059518  0.29726820  0.91113682  1
  O  O359  1  0.87684780  0.06211393  0.90497922  1
  C  C360  1  0.57669549  0.22910036  0.87404920  1
  C  C361  1  0.59959171  0.22941807  0.95688605  1
  C  C362  1  0.86514028  0.18199167  0.87389081  1
  C  C363  1  0.85190190  0.42083841  0.94617657  1
  H  H364  1  0.86522386  0.17760801  0.80068610  1
  Zn  Zn365  1  0.71117236  0.07564964  0.79019193  1
  C  C366  1  0.82500882  0.32635692  0.78229520  1
  C  C367  1  0.86505360  0.21328867  0.83010596  1
  O  O368  1  0.63759717  0.49556284  0.89031663  1
  H  H369  1  0.83100037  0.43552569  0.91109347  1
  C  C370  1  0.63421244  0.15757031  0.95598969  1
  C  C371  1  0.87086728  0.10122496  0.87141029  1
  O  O372  1  0.87396155  0.07424323  0.83182074  1
  H  H373  1  0.65068635  0.13166759  0.92440701  1
  C  C374  1  0.61214349  0.34599958  0.90719822  1
  H  H375  1  0.87830259  0.19209820  0.94570798  1
  C  C376  1  0.60851218  0.45460066  0.85768956  1
  H  H377  1  0.63619676  0.38024448  0.93468014  1
  O  O378  1  0.58463557  0.47928282  0.81931253  1
  C  C379  1  0.85780224  0.47143321  0.98098333  1
  O  O380  1  0.56158272  0.14906022  0.79323739  1
  H  H381  1  0.56079678  0.35866991  0.79203052  1
  C  C382  1  0.59889711  0.02316137  0.87856637  1
  C  C383  1  0.88013905  0.32085899  0.99910777  1
  O  O384  1  0.53317958  0.24424556  0.75215876  1
  C  C385  1  0.65859885  0.12034489  0.99636667  1
  C  C386  1  0.57162803  0.26453359  0.99831723  1
  O  O387  1  0.64062507  0.00750244  0.91597885  1
  H  H388  1  0.54057188  0.31973610  0.99916777  1
  C  C389  1  0.61536771  0.99686639  0.09708723  1
  C  C390  1  0.96241475  0.86604136  0.16057727  1
  C  C391  1  0.74505573  0.69943039  0.16114255  1
  H  H392  1  0.64152038  0.90004562  0.02988677  1
  C  C393  1  0.79942627  0.84297982  0.05182127  1
  C  C394  1  0.72135905  0.60114712  0.08689395  1
  C  C395  1  0.70858591  0.89283266  0.05482983  1
  H  H396  1  0.79310024  0.97716748  0.15594228  1
  C  C397  1  0.75899682  0.57782953  0.13044578  1
  C  C398  1  0.89298833  0.73136480  0.01802718  1
  C  C399  1  0.82769524  0.79311656  0.01147957  1
  Zn  Zn400  1  0.81281360  0.95076776  0.23723642  1
  C  C401  1  0.71021086  0.93945142  0.09188061  1
  C  C402  1  0.76941469  0.75176547  0.19345358  1
  C  C403  1  0.67384856  0.54754221  0.05920703  1
  C  C404  1  0.69162395  0.81450072  0.19737720  1
  C  C405  1  0.90862459  0.63206085  0.19017760  1
  C  C406  1  0.88060793  0.83428137  0.08681494  1
  C  C407  1  0.79231897  0.93551627  0.12649488  1
  O  O408  1  0.70341429  0.86044302  0.22827161  1
  H  H409  1  0.75219373  0.65374596  0.07558970  1
  C  C410  1  0.86096832  0.74757219  0.22400309  1
  C  C411  1  0.80915317  0.63683392  0.16225132  1
  H  H412  1  0.67981064  0.70431869  0.13505360  1
  O  O413  1  0.60240740  0.81949760  0.17146129  1
  C  C414  1  0.87402541  0.88096618  0.12312443  1
  C  C415  1  0.93308108  0.68867935  0.22067342  1
  H  H416  1  0.96526885  0.58744125  0.18535346  1
  H  H417  1  0.91398294  0.71837249  0.05315491  1
  C  C418  1  0.63992569  0.56899687  0.01164747  1
  O  O419  1  0.96192022  0.89813261  0.19903473  1
  C  C420  1  0.74126101  0.50605121  0.14647327  1
  O  O421  1  0.54106741  0.99654532  0.06754434  1
  H  H422  1  0.94436806  0.79232610  0.08480642  1
  Zn  Zn423  1  0.98901670  0.80416921  0.32194759  1
  H  H424  1  0.84442817  0.81044146  0.42204722  1
  O  O425  1  0.82948882  0.74204157  0.32638820  1
  O  O426  1  0.71998097  0.53406679  0.31771236  1
  O  O427  1  0.77707670  0.67208735  0.42093055  1
  C  C428  1  0.58930089  0.97929616  0.48239604  1
  C  C429  1  0.87386702  0.63857281  0.41934386  1
  Zn  Zn430  1  0.60592883  0.61830563  0.41605510  1
  C  C431  1  0.72963492  0.92407071  0.36976416  1
  H  H432  1  0.59476851  0.60119456  0.33744823  1
  C  C433  1  0.83832032  0.93654966  0.34226895  1
  O  O434  1  0.59232222  0.65183418  0.34574459  1
  O  O435  1  0.85486663  0.89766954  0.30767072  1
  O  O436  1  0.69738095  0.51285551  0.39152416  1
  C  C437  1  0.71593788  0.96010157  0.41010858  1
  C  C438  1  0.52494169  0.90270244  0.41952123  1
  C  C439  1  0.87949314  0.81433662  0.45746635  1
  Zn  Zn440  1  0.77134496  0.64085050  0.32856238  1
  C  C441  1  0.64773018  0.87404088  0.35493509  1
  H  H442  1  0.84578046  0.73752872  0.35760984  1
  H  H443  1  0.67202791  0.84063823  0.32633719  1
  C  C444  1  0.93022517  0.61819660  0.46414507  1
  C  C445  1  0.61345043  0.94561928  0.43618774  1
  O  O446  1  0.90697863  0.61400327  0.38304451  1
  H  H447  1  0.77493045  0.99978517  0.49483669  1
  C  C448  1  0.54317241  0.86878348  0.37794391  1
  O  O449  1  0.90798595  0.98360973  0.35487486  1
  C  C450  1  0.99383513  0.79512281  0.46632017  1
  H  H451  1  0.78237547  0.99775454  0.41872357  1
  C  C452  1  0.81313508  0.83257939  0.49775535  1
  H  H453  1  0.71986159  0.84149079  0.49353937  1
  H  H454  1  0.87550227  0.78684426  0.25220659  1
  H  H455  1  0.52714985  0.94918091  0.62408119  1
  C  C456  1  0.87034807  0.62938666  0.59058652  1
  C  C457  1  0.77868193  0.56215147  0.64964868  1
  H  H458  1  0.82569874  0.51947624  0.58354118  1
  C  C459  1  0.82302349  0.56542431  0.60540553  1
  C  C460  1  0.77767663  0.62154292  0.67981378  1
  C  C461  1  0.82553387  0.68253092  0.66149821  1
  C  C462  1  0.93588404  0.62259281  0.54523120  1
  O  O463  1  0.80689789  0.74412582  0.73693885  1
  H  H464  1  0.80925931  0.85906664  0.57202790  1
  C  C465  1  0.86780796  0.69215272  0.61767962  1
  H  H466  1  0.89573655  0.74358217  0.60627155  1
  H  H467  1  0.80216237  0.67800702  0.50619278  1
  C  C468  1  0.98632948  0.83365620  0.54580972  1
  C  C469  1  0.82870353  0.74734155  0.69383628  1
  H  H470  1  0.74589915  0.61754195  0.71671614  1
  C  C471  1  0.86067863  0.84425802  0.54095811  1
  O  O472  1  0.84901496  0.80390670  0.67661750  1
  C  C473  1  0.57082120  0.98662824  0.70984116  1
  H  H474  1  0.93729228  0.87569358  0.72749555  1
  O  O475  1  0.62142819  0.99192599  0.74667967  1
  C  C476  1  0.50779223  0.90623588  0.64882901  1
  C  C477  1  0.53290902  0.91146152  0.69567173  1
  C  C478  1  0.53558647  0.85741632  0.72742014  1
  C  C479  1  0.88169216  0.64313942  0.50435662  1
  H  H480  1  0.52246671  0.72285369  0.57800428  1
  O  O481  1  0.57011401  0.65965376  0.50044997  1
  C  C482  1  0.78859470  0.79458021  0.88365802  1
  O  O483  1  0.97768701  0.90018696  0.91252560  1
  H  H484  1  0.56537145  0.86501572  0.76286978  1
  H  H485  1  0.74487938  0.86064335  0.95907979  1
  O  O486  1  0.96891355  0.58283420  0.85133831  1
  Zn  Zn487  1  0.81727909  0.95285586  0.88947403  1
  O  O488  1  0.90914383  0.54071706  0.78643598  1
  O  O489  1  0.92175936  0.88825593  0.75905417  1
  Zn  Zn490  1  0.90750526  0.79014449  0.78807580  1
  C  C491  1  0.82501482  0.76731788  0.92944757  1
  O  O492  1  0.66753249  0.61706753  0.77982309  1
  H  H493  1  0.97145477  0.64043043  0.98761351  1
  O  O494  1  0.80723040  0.75711938  0.84859749  1
  C  C495  1  0.79962383  0.81091783  0.96705661  1
  H  H496  1  0.86043777  0.52929502  0.97527536  1
  O  O497  1  0.74403757  0.85612444  0.88142926  1
  C  C498  1  0.88426023  0.70486809  0.93758213  1
  H  H499  1  0.90170647  0.66862885  0.90897983  1
  H  H500  1  0.59954102  0.62909513  0.76393861  1
  C  C501  1  0.96507853  0.53229203  0.82241517  1
  Zn  Zn502  1  0.64975990  0.69558985  0.82452671  1
  C  C503  1  0.92016141  0.68802245  0.98158662  1
  H  H504  1  0.50532485  0.69844776  0.88261774  1
  O  O505  1  0.57347071  0.67191668  0.88149689  1
  O  O506  1  0.66256121  0.62501199  0.99095705  1
  O  O507  1  0.58303616  0.52135265  0.98848544  1
  O  O508  1  0.50221624  0.73769201  0.78288671  1
  Zn  Zn509  1  0.72304222  0.51120980  0.77265208  1
  Zn  Zn510  1  0.55342660  0.58107568  0.91951006  1
  O  O511  1  0.64987414  0.99751742  0.84236278  1
