# generated using pymatgen
data_CuH10(C11O2)2
_symmetry_space_group_name_H-M   'P 1'
_cell_length_a   5.49407474
_cell_length_b   31.93279426
_cell_length_c   39.77226074
_cell_angle_alpha   90.00000000
_cell_angle_beta   90.00000000
_cell_angle_gamma   90.00000000
_symmetry_Int_Tables_number   1
_chemical_formula_structural   CuH10(C11O2)2
_chemical_formula_sum   'Cu12 H120 C264 O48'
_cell_volume   6977.69149852
_cell_formula_units_Z   12
loop_
 _symmetry_equiv_pos_site_id
 _symmetry_equiv_pos_as_xyz
  1  'x, y, z'
loop_
 _atom_site_type_symbol
 _atom_site_label
 _atom_site_symmetry_multiplicity
 _atom_site_fract_x
 _atom_site_fract_y
 _atom_site_fract_z
 _atom_site_occupancy
  C  C0  1  0.33818775  0.14528951  0.07924620  1
  C  C1  1  0.34972202  0.15928619  0.11213066  1
  O  O2  1  0.37893302  0.04772767  0.20471131  1
  C  C3  1  0.28315774  0.01819484  0.04366403  1
  O  O4  1  0.29730020  0.11559102  0.01524487  1
  C  C5  1  0.37925343  0.01036087  0.07719964  1
  H  H6  1  0.19285385  0.01438430  0.23322936  1
  O  O7  1  0.08025840  0.00428123  0.03535623  1
  O  O8  1  0.43217759  0.03445617  0.02242697  1
  C  C9  1  0.13050798  0.19216502  0.19392372  1
  H  H10  1  0.49246178  0.14736031  0.06214832  1
  C  C11  1  0.14613109  0.15562249  0.13344564  1
  C  C12  1  0.11574818  0.12563463  0.06836897  1
  C  C13  1  0.11510069  0.10873016  0.03442220  1
  C  C14  1  0.13071077  0.17368973  0.16737844  1
  C  C15  1  0.14292269  0.21720515  0.22550198  1
  C  C16  1  0.10525743  0.26131649  0.22804023  1
  H  H17  1  0.06430224  0.27861205  0.20557459  1
  H  H18  1  0.23259234  0.42991813  0.24793567  1
  H  H19  1  0.28277394  0.17337880  0.40407772  1
  H  H20  1  0.16740719  0.04129869  0.38361154  1
  Cu  Cu21  1  0.35495394  0.03436866  0.48810676  1
  H  H22  1  0.47838899  0.06033747  0.27242458  1
  H  H23  1  0.13180419  0.13606562  0.45603591  1
  C  C24  1  0.00621253  0.02278616  0.38195469  1
  O  O25  1  0.23645126  0.01397217  0.44708921  1
  C  C26  1  0.09764909  0.16019543  0.40489890  1
  C  C27  1  0.12225950  0.19119707  0.31800748  1
  C  C28  1  0.05355680  0.17533086  0.34408099  1
  C  C29  1  0.01318237  0.14082129  0.43402664  1
  C  C30  1  0.15004083  0.19394951  0.25522301  1
  H  H31  1  0.04261658  0.24080038  0.37313198  1
  C  C32  1  0.15599209  0.21492913  0.28659779  1
  H  H33  1  0.12441964  0.16109248  0.25590469  1
  H  H34  1  0.43830574  0.11241736  0.40749939  1
  O  O35  1  0.46982682  0.08499389  0.46488685  1
  C  C36  1  0.02245403  0.00172384  0.44354113  1
  C  C37  1  0.04199590  0.30959250  0.38407433  1
  C  C38  1  0.12381342  0.25922583  0.29021611  1
  H  H39  1  0.46767918  0.30984241  0.32499439  1
  C  C40  1  0.25533200  0.44788362  0.35976387  1
  C  C41  1  0.01194420  0.47984167  0.26607999  1
  H  H42  1  0.11334056  0.27643937  0.31447201  1
  C  C43  1  0.05845933  0.43765314  0.25993739  1
  C  C44  1  0.34408014  0.47513249  0.38611577  1
  H  H45  1  0.49667487  0.39304820  0.28763085  1
  C  C46  1  0.41085135  0.31676085  0.42843735  1
  C  C47  1  0.26588675  0.31231941  0.40646790  1
  C  C48  1  0.08074120  0.27947555  0.25998997  1
  C  C49  1  0.41337767  0.41177636  0.35341728  1
  H  H50  1  0.45098397  0.46696383  0.30649931  1
  H  H51  1  0.31708400  0.36948739  0.48167326  1
  C  C52  1  0.49556249  0.35423225  0.48403794  1
  C  C53  1  0.02085953  0.45514993  0.34568368  1
  H  H54  1  0.00918216  0.37803153  0.38465901  1
  C  C55  1  0.01732202  0.32461420  0.26447034  1
  H  H56  1  0.15752483  0.30231977  0.48634794  1
  C  C57  1  0.21997929  0.05051220  0.54999169  1
  O  O58  1  0.41029161  0.04899993  0.53182953  1
  C  C59  1  0.40299279  0.11333745  0.57895752  1
  C  C60  1  0.39223318  0.14578578  0.60272258  1
  H  H61  1  0.38173606  0.10682868  0.65674130  1
  H  H62  1  0.44204836  0.16460389  0.73447424  1
  C  C63  1  0.18107387  0.14555928  0.62520670  1
  C  C64  1  0.21215475  0.08381355  0.57591814  1
  C  C65  1  0.15606794  0.17420405  0.65507544  1
  C  C66  1  0.14380346  0.18846461  0.68306999  1
  C  C67  1  0.12984190  0.20301671  0.72083437  1
  C  C68  1  0.01197221  0.08339913  0.59746199  1
  O  O69  1  0.03904472  0.02824812  0.54352487  1
  C  C70  1  0.28716552  0.18273102  0.74325945  1
  C  C71  1  0.42659786  0.02368563  0.67193073  1
  H  H72  1  0.00890560  0.24706229  0.62736191  1
  H  H73  1  0.09142855  0.30205832  0.71910950  1
  C  C74  1  0.47246680  0.28506507  0.66421449  1
  C  C75  1  0.01801843  0.35286128  0.54487540  1
  O  O76  1  0.23346121  0.34187754  0.54723864  1
  O  O77  1  0.09489768  0.47661911  0.61211881  1
  H  H78  1  0.38669576  0.35267980  0.66948398  1
  H  H79  1  0.09720221  0.32741547  0.63061253  1
  H  H80  1  0.30105322  0.27558270  0.67559292  1
  C  C81  1  0.04489783  0.47760347  0.74283568  1
  Cu  Cu82  1  0.03895528  0.42079203  0.59706486  1
  C  C83  1  0.07018833  0.31323568  0.74535956  1
  O  O84  1  0.16283341  0.08907487  0.94869171  1
  H  H85  1  0.12468743  0.14804552  0.90741517  1
  C  C86  1  0.12109119  0.04686725  0.82199262  1
  C  C87  1  0.09910734  0.02410249  0.87948964  1
  Cu  Cu88  1  0.35627690  0.06937408  0.98755768  1
  C  C89  1  0.22709766  0.18872740  0.77847383  1
  H  H90  1  0.31181372  0.09381642  0.86708924  1
  C  C91  1  0.37849130  0.17217662  0.80545035  1
  C  C92  1  0.35398802  0.02743765  0.81659064  1
  C  C93  1  0.47984746  0.10636826  0.87581351  1
  C  C94  1  0.48895991  0.15977192  0.82969259  1
  C  C95  1  0.33037051  0.00685812  0.87427721  1
  C  C96  1  0.46082182  0.00819247  0.84321096  1
  C  C97  1  0.00429655  0.06518906  0.79157602  1
  C  C98  1  0.01882883  0.21200773  0.78882592  1
  H  H99  1  0.44574859  0.02711692  0.79181790  1
  Cu  Cu100  1  0.14884308  0.39949400  0.77084343  1
  O  O101  1  0.46252943  0.38550000  0.77228578  1
  O  O102  1  0.01438054  0.45388868  0.77035975  1
  H  H103  1  0.29323224  0.29929464  0.82708817  1
  C  C104  1  0.16639258  0.30772840  0.80673587  1
  H  H105  1  0.34734878  0.48700072  0.79808913  1
  C  C106  1  0.45852684  0.27711090  0.76957259  1
  C  C107  1  0.23278783  0.30117088  0.77262893  1
  C  C108  1  0.31441862  0.67372004  0.17089131  1
  H  H109  1  0.29053517  0.64825015  0.15212216  1
  C  C110  1  0.18735225  0.73921213  0.19815208  1
  C  C111  1  0.39159409  0.73593211  0.22046660  1
  C  C112  1  0.14598030  0.70580262  0.17404882  1
  C  C113  1  0.08013026  0.87061038  0.05213318  1
  H  H114  1  0.05872569  0.97998121  0.09682040  1
  C  C115  1  0.28939401  0.87108246  0.17181805  1
  H  H116  1  0.22708057  0.85043345  0.05430218  1
  C  C117  1  0.15273835  0.88213447  0.14020404  1
  H  H118  1  0.41457920  0.75774466  0.24204724  1
  C  C119  1  0.35499226  0.98002005  0.13280354  1
  H  H120  1  0.04937224  0.89168464  0.21310631  1
  C  C121  1  0.33663666  0.85234772  0.23191130  1
  C  C122  1  0.06719491  0.89011499  0.11286322  1
  H  H123  1  0.26542429  0.96037380  0.15231896  1
  C  C124  1  0.25248323  0.98559926  0.10128911  1
  C  C125  1  0.21049711  0.87436726  0.20578457  1
  C  C126  1  0.00643273  0.77345522  0.19713613  1
  C  C127  1  0.09734035  0.98682140  0.24599520  1
  H  H128  1  0.03921357  0.85636270  0.00058728  1
  H  H129  1  0.33975028  0.70864469  0.32742338  1
  H  H130  1  0.27960574  0.53109076  0.41422502  1
  H  H131  1  0.02095847  0.71116910  0.26929779  1
  C  C132  1  0.21468558  0.50919425  0.39550888  1
  H  H133  1  0.12374399  0.50671122  0.25874480  1
  C  C134  1  0.49664396  0.72635092  0.31645630  1
  O  O135  1  0.49473332  0.63824005  0.30746962  1
  C  C136  1  0.26977763  0.86252355  0.33592559  1
  H  H137  1  0.35357028  0.78709834  0.33091242  1
  C  C138  1  0.16179853  0.97080248  0.27725662  1
  C  C139  1  0.44269194  0.88664926  0.35413853  1
  C  C140  1  0.27627925  0.86365243  0.40679139  1
  C  C141  1  0.30305690  0.85325427  0.26872051  1
  C  C142  1  0.27811239  0.85653222  0.29897710  1
  C  C143  1  0.08872009  0.84207482  0.38923088  1
  C  C144  1  0.34875212  0.98765476  0.30056221  1
  H  H145  1  0.04725169  0.78851719  0.27702832  1
  O  O146  1  0.09578504  0.84607442  0.45939008  1
  C  C147  1  0.08379280  0.84053131  0.35542152  1
  H  H148  1  0.11077424  0.92447143  0.31804772  1
  H  H149  1  0.35439516  0.96465563  0.38183936  1
  C  C150  1  0.26932692  0.86323448  0.44401905  1
  C  C151  1  0.04839784  0.93592298  0.29296500  1
  O  O152  1  0.43645434  0.88299746  0.45927092  1
  C  C153  1  0.45670926  0.88415820  0.38844023  1
  C  C154  1  0.49091711  0.99716064  0.32222602  1
  C  C155  1  0.49587508  0.76949342  0.31779344  1
  C  C156  1  0.28070475  0.62616902  0.61749215  1
  C  C157  1  0.31371745  0.58485332  0.60897270  1
  C  C158  1  0.06441420  0.67760939  0.65518758  1
  C  C159  1  0.03332052  0.71154276  0.66882400  1
  C  C160  1  0.09864658  0.63535311  0.64246862  1
  H  H161  1  0.19884066  0.63841097  0.69416703  1
  C  C162  1  0.31949885  0.64742946  0.71529667  1
  C  C163  1  0.15603020  0.55208061  0.61881328  1
  H  H164  1  0.21168645  0.53372016  0.69284828  1
  H  H165  1  0.31389129  0.73310283  0.71902648  1
  C  C166  1  0.22075430  0.50988644  0.60430690  1
  C  C167  1  0.25127474  0.50785583  0.74563717  1
  C  C168  1  0.30954154  0.53481145  0.71838019  1
  O  O169  1  0.39155311  0.50760835  0.58584702  1
  H  H170  1  0.39215933  0.65118671  0.60612867  1
  C  C171  1  0.49935480  0.56226661  0.72148463  1
  H  H172  1  0.47272411  0.57632077  0.59335433  1
  C  C173  1  0.26067225  0.63843248  0.74849563  1
  C  C174  1  0.40471344  0.86573612  0.69216940  1
  C  C175  1  0.23576591  0.90041976  0.74083079  1
  C  C176  1  0.38426690  0.78097663  0.57463280  1
  C  C177  1  0.35301458  0.75822467  0.60371601  1
  O  O178  1  0.03118111  0.85691443  0.55127105  1
  C  C179  1  0.00548349  0.91428533  0.68984872  1
  H  H180  1  0.24883514  0.80378737  0.56663633  1
  H  H181  1  0.18848859  0.76246372  0.61963744  1
  C  C182  1  0.32173658  0.99786258  0.65510043  1
  C  C183  1  0.01477792  0.75088468  0.68852995  1
  C  C184  1  0.20288724  0.90566602  0.59918647  1
  Cu  Cu185  1  0.05329933  0.84355640  0.50458252  1
  C  C186  1  0.31508051  0.93293404  0.62109273  1
  H  H187  1  0.27175881  0.87427730  0.59365390  1
  C  C188  1  0.18610629  0.96963657  0.63210284  1
  C  C189  1  0.17115295  0.75697505  0.71539386  1
  C  C190  1  0.14083113  0.79414021  0.73480414  1
  C  C191  1  0.20233255  0.89252923  0.70598705  1
  O  O192  1  0.48862695  0.97507076  0.74749443  1
  C  C193  1  0.01101310  0.72640680  0.84970363  1
  C  C194  1  0.03643521  0.61461677  0.75565929  1
  C  C195  1  0.24637923  0.74379631  0.84588379  1
  H  H196  1  0.34849169  0.64996532  0.79936711  1
  H  H197  1  0.35455217  0.74166133  0.82338882  1
  C  C198  1  0.41653752  0.65513777  0.77412465  1
  C  C199  1  0.39359814  0.50589718  0.77559641  1
  C  C200  1  0.47066146  0.82222683  0.77988252  1
  H  H201  1  0.40153446  0.88644742  0.75190698  1
  Cu  Cu202  1  0.26399373  0.91730287  0.94119744  1
  O  O203  1  0.37123137  0.97227226  0.92891186  1
  C  C204  1  0.34806483  0.76022993  0.87498953  1
  H  H205  1  0.42099621  0.88742032  0.82588326  1
  C  C206  1  0.21585480  0.76266719  0.90605193  1
  C  C207  1  0.32396958  0.80934630  0.75954129  1
  O  O208  1  0.23618524  0.77865376  0.96438787  1
  C  C209  1  0.46221997  0.98371663  0.90088056  1
  C  C210  1  0.31986664  0.78211201  0.93694175  1
  O  O211  1  0.10048790  0.90749506  0.89940293  1
  H  H212  1  0.22781965  0.81684421  0.83506422  1
  C  C213  1  0.07210943  0.92448103  0.75911096  1
  C  C214  1  0.14609438  0.87770456  0.88063601  1
  O  O215  1  0.45404676  0.92227321  0.98015544  1
  C  C216  1  0.04676113  0.83104665  0.83226486  1
  H  H217  1  0.10375801  0.92933292  0.78553283  1
  O  O218  1  0.33912205  0.85558933  0.88590075  1
  H  H219  1  0.71064930  0.04407658  0.06305744  1
  H  H220  1  0.73252525  0.10646421  0.08089597  1
  H  H221  1  0.77308560  0.13250775  0.13998065  1
  C  C222  1  0.90861336  0.12144117  0.08983874  1
  C  C223  1  0.61505014  0.02365056  0.08250139  1
  O  O224  1  0.93660184  0.08609947  0.02490003  1
  C  C225  1  0.92438655  0.13739805  0.12199633  1
  C  C226  1  0.72847046  0.01625214  0.11342552  1
  H  H227  1  0.91330903  0.02546849  0.11847753  1
  H  H228  1  0.60827400  0.16209013  0.20236475  1
  C  C229  1  0.61353285  0.15066047  0.22857907  1
  H  H230  1  0.52368880  0.17533476  0.11921637  1
  C  C231  1  0.55304974  0.10888988  0.23521968  1
  O  O232  1  0.58199301  0.09400613  0.17586825  1
  C  C233  1  0.50426255  0.08033352  0.20173070  1
  C  C234  1  0.78029571  0.12125729  0.43535895  1
  C  C235  1  0.70198136  0.14379786  0.37726899  1
  C  C236  1  0.68615180  0.09857590  0.46537701  1
  O  O237  1  0.82069154  0.08741757  0.48906006  1
  C  C238  1  0.62396203  0.12531511  0.40697438  1
  H  H239  1  0.94518165  0.02981624  0.32685963  1
  H  H240  1  0.69570050  0.21146299  0.25089353  1
  H  H241  1  0.60353180  0.14183052  0.35408131  1
  C  C242  1  0.63267959  0.17868768  0.25607171  1
  C  C243  1  0.61646857  0.16348018  0.29006658  1
  C  C244  1  0.69382808  0.23441304  0.32568675  1
  C  C245  1  0.65889131  0.20116733  0.31218126  1
  C  C246  1  0.51084504  0.09464936  0.26862372  1
  H  H247  1  0.51001228  0.10821134  0.32209847  1
  C  C248  1  0.94949601  0.15931290  0.37536605  1
  C  C249  1  0.53422481  0.12143870  0.29662972  1
  C  C250  1  0.91110545  0.00266371  0.41029447  1
  C  C251  1  0.87125450  0.01883085  0.35278810  1
  C  C252  1  0.97352763  0.31653334  0.48684847  1
  C  C253  1  0.89179012  0.40574585  0.27047038  1
  H  H254  1  0.96100636  0.43177895  0.32666049  1
  H  H255  1  0.52165989  0.47146146  0.39863964  1
  C  C256  1  0.57751769  0.32794403  0.45740434  1
  C  C257  1  0.75370863  0.27215484  0.34602431  1
  C  C258  1  0.61272046  0.45680292  0.29283989  1
  C  C259  1  0.81524933  0.31013819  0.45978086  1
  C  C260  1  0.56224702  0.38328418  0.35175117  1
  C  C261  1  0.95079056  0.27190511  0.36874157  1
  C  C262  1  0.79537727  0.48557230  0.28434466  1
  H  H263  1  0.71550071  0.49711582  0.34353468  1
  C  C264  1  0.64561905  0.41594643  0.28241564  1
  C  C265  1  0.71165988  0.34600036  0.35619171  1
  C  C266  1  0.96289286  0.36126164  0.26714509  1
  C  C267  1  0.61859870  0.30984338  0.34136006  1
  C  C268  1  0.88968325  0.48897194  0.35619004  1
  H  H269  1  0.88628094  0.29294000  0.43778690  1
  C  C270  1  0.92825630  0.34844061  0.37643112  1
  C  C271  1  0.78907065  0.12799587  0.72033460  1
  H  H272  1  0.87747140  0.05700850  0.59743241  1
  H  H273  1  0.82563850  0.11425456  0.63935835  1
  C  C274  1  0.63856265  0.21148269  0.66560015  1
  C  C275  1  0.80813874  0.08807468  0.73271575  1
  H  H276  1  0.86744884  0.15511677  0.73367570  1
  H  H277  1  0.74484079  0.02135234  0.72610089  1
  C  C278  1  0.70897249  0.05329465  0.71572156  1
  H  H279  1  0.78080522  0.23655835  0.70986763  1
  C  C280  1  0.63456291  0.17625203  0.67667651  1
  C  C281  1  0.63637900  0.13338770  0.69175744  1
  Cu  Cu282  1  0.89615440  0.03160885  0.50168107  1
  C  C283  1  0.51517942  0.09934888  0.67583594  1
  H  H284  1  0.56617412  0.11124068  0.56316913  1
  C  C285  1  0.56774998  0.05907091  0.68658014  1
  C  C286  1  0.91778551  0.22587308  0.72754430  1
  H  H287  1  0.54491073  0.16729519  0.60474431  1
  H  H288  1  0.83022862  0.00416735  0.62730731  1
  C  C289  1  0.98966137  0.11370551  0.62237549  1
  C  C290  1  0.66471495  0.25693887  0.65648936  1
  H  H291  1  0.59026685  0.37912536  0.53394320  1
  C  C292  1  0.51594199  0.32846155  0.66207326  1
  C  C293  1  0.65072118  0.36152190  0.51086319  1
  O  O294  1  0.91718523  0.47513250  0.71927116  1
  C  C295  1  0.89612824  0.26914036  0.64160016  1
  C  C296  1  0.74824160  0.34051380  0.65185266  1
  H  H297  1  0.71925789  0.34453671  0.73575907  1
  C  C298  1  0.93572752  0.31219823  0.64100784  1
  C  C299  1  0.78745640  0.38631416  0.64935895  1
  O  O300  1  0.62266168  0.40933775  0.65744303  1
  C  C301  1  0.88622689  0.34390445  0.51306101  1
  O  O302  1  0.99818862  0.39649685  0.63632315  1
  O  O303  1  0.93683021  0.37899368  0.56794275  1
  C  C304  1  0.60170574  0.14093222  0.85926139  1
  H  H305  1  0.82380390  0.06542956  0.85615461  1
  C  C306  1  0.58836696  0.08979130  0.90364704  1
  C  C307  1  0.82235601  0.10359476  0.91400038  1
  O  O308  1  0.82057648  0.05890043  0.96095375  1
  C  C309  1  0.83890272  0.15267368  0.86981288  1
  C  C310  1  0.94766287  0.08149023  0.94074178  1
  C  C311  1  0.86505753  0.22896378  0.76320790  1
  H  H312  1  0.92678086  0.17860032  0.85600187  1
  C  C313  1  0.95275919  0.13526111  0.89740710  1
  C  C314  1  0.91913444  0.07683119  0.76516539  1
  H  H315  1  0.96194764  0.21557725  0.81495935  1
  H  H316  1  0.51754677  0.06185612  0.91723104  1
  C  C317  1  0.98992261  0.04434250  0.85298292  1
  H  H318  1  0.98750228  0.01884875  0.90226760  1
  Cu  Cu319  1  0.94768168  0.03334618  0.99880131  1
  C  C320  1  0.86152064  0.33532989  0.75308328  1
  C  C321  1  0.95761621  0.32953434  0.81405255  1
  C  C322  1  0.64242548  0.25651192  0.76911251  1
  C  C323  1  0.81965774  0.34274655  0.78779067  1
  C  C324  1  0.59089540  0.36807703  0.79677470  1
  O  O325  1  0.53665931  0.37132228  0.82534691  1
  H  H326  1  0.89774079  0.33435971  0.84119441  1
  O  O327  1  0.84859105  0.63229607  0.21392225  1
  Cu  Cu328  1  0.87921456  0.59579545  0.24953197  1
  H  H329  1  0.69005927  0.69435842  0.23577026  1
  H  H330  1  0.96332966  0.70282962  0.16254268  1
  O  O331  1  0.65556413  0.60604451  0.17080816  1
  C  C332  1  0.67419339  0.63262905  0.19151019  1
  C  C333  1  0.54653866  0.70202007  0.21718526  1
  C  C334  1  0.51756411  0.67196137  0.19244987  1
  C  C335  1  0.85417208  0.79975057  0.19158242  1
  C  C336  1  0.55182793  0.82888813  0.22552553  1
  C  C337  1  0.71389916  0.97958050  0.16974825  1
  H  H338  1  0.66643799  0.93573431  0.09740767  1
  C  C339  1  0.79783006  0.92834410  0.24480982  1
  H  H340  1  0.65257901  0.91130310  0.23268951  1
  C  C341  1  0.81588428  0.97343791  0.19649966  1
  H  H342  1  0.65325599  0.81462983  0.24628612  1
  C  C343  1  0.97421618  0.87495621  0.02041252  1
  C  C344  1  0.76421550  0.90029678  0.01661884  1
  C  C345  1  0.75160598  0.91949931  0.07623119  1
  C  C346  1  0.96474380  0.89270282  0.07937465  1
  C  C347  1  0.62719218  0.82672435  0.19036985  1
  C  C348  1  0.90023125  0.96514729  0.23019984  1
  C  C349  1  0.59884672  0.99397431  0.13773130  1
  C  C350  1  0.66913226  0.92382930  0.04416421  1
  H  H351  1  0.55893203  0.84554374  0.13763716  1
  C  C352  1  0.50501469  0.84726664  0.16454133  1
  H  H353  1  0.50460888  0.94134411  0.04279397  1
  C  C354  1  0.67973629  0.70412322  0.29808069  1
  C  C355  1  0.76230935  0.52982408  0.29224632  1
  C  C356  1  0.67772382  0.65892789  0.29497417  1
  O  O357  1  0.61696769  0.55823012  0.37352706  1
  O  O358  1  0.92025109  0.55649006  0.28410751  1
  O  O359  1  0.86183621  0.64290973  0.28237885  1
  Cu  Cu360  1  0.55339188  0.59246138  0.33731292  1
  C  C361  1  0.87635242  0.72716690  0.28461104  1
  C  C362  1  0.82561118  0.55398138  0.38970830  1
  O  O363  1  0.88636599  0.57885824  0.41023860  1
  C  C364  1  0.98693643  0.51700446  0.38043229  1
  O  O365  1  0.57234828  0.53993104  0.30874321  1
  C  C366  1  0.69807554  0.79293871  0.30334611  1
  C  C367  1  0.72302631  0.83883018  0.29862343  1
  C  C368  1  0.63792707  0.99976382  0.35356800  1
  H  H369  1  0.62937046  0.96694023  0.43364915  1
  C  C370  1  0.53979873  0.97795605  0.38191155  1
  H  H371  1  0.61340474  0.89966764  0.40191269  1
  C  C372  1  0.88734847  0.77012882  0.28659069  1
  C  C373  1  0.68774134  0.97951045  0.41001755  1
  C  C374  1  0.77448939  0.87496977  0.29251995  1
  H  H375  1  0.57443755  0.90646893  0.33878313  1
  C  C376  1  0.86267923  0.91425644  0.27614715  1
  H  H377  1  0.94510380  0.82505037  0.40313847  1
  H  H378  1  0.94575961  0.82518864  0.34048063  1
  O  O379  1  0.90900937  0.98983524  0.47035410  1
  C  C380  1  0.75348423  0.71808613  0.59017094  1
  H  H381  1  0.80611764  0.60944568  0.67204151  1
  C  C382  1  0.54951197  0.70842428  0.64581920  1
  C  C383  1  0.68021443  0.68848369  0.73318737  1
  C  C384  1  0.51931958  0.68875526  0.67166687  1
  C  C385  1  0.54520069  0.72814493  0.61289261  1
  H  H386  1  0.94580870  0.74154101  0.54678794  1
  H  H387  1  0.84377522  0.53644926  0.64932906  1
  H  H388  1  0.53733981  0.58291912  0.69987573  1
  H  H389  1  0.82622738  0.70997936  0.72737462  1
  C  C390  1  0.78362146  0.74363503  0.56259808  1
  C  C391  1  0.96074716  0.56194828  0.64023711  1
  C  C392  1  0.95139409  0.60155805  0.65471476  1
  H  H393  1  0.87741811  0.69263664  0.59354716  1
  C  C394  1  0.52460170  0.67248510  0.70698388  1
  Cu  Cu395  1  0.58416902  0.88527144  0.50209552  1
  O  O396  1  0.85467257  0.79537231  0.51097174  1
  H  H397  1  0.91942537  0.84927101  0.74342262  1
  H  H398  1  0.65222976  0.94633854  0.69742874  1
  O  O399  1  0.69979380  0.89840753  0.54425177  1
  H  H400  1  0.51083684  0.92587295  0.62903310  1
  C  C401  1  0.82012663  0.77864290  0.67903739  1
  C  C402  1  0.85500432  0.95599979  0.59195744  1
  O  O403  1  0.50463623  0.82864588  0.51890507  1
  C  C404  1  0.65187011  0.80008874  0.52713073  1
  C  C405  1  0.60686173  0.77464007  0.55636917  1
  C  C406  1  0.82082045  0.93479389  0.70793244  1
  H  H407  1  0.67717150  0.95981025  0.58125599  1
  C  C408  1  0.94599370  0.82028476  0.72728889  1
  H  H409  1  0.69845050  0.77346950  0.65820346  1
  C  C410  1  0.78858495  0.81299175  0.69915539  1
  C  C411  1  0.89951593  0.88846871  0.55922718  1
  C  C412  1  0.57435005  0.84213903  0.69238083  1
  C  C413  1  0.94907883  0.97957865  0.61784672  1
  C  C414  1  0.98411695  0.91828058  0.58382236  1
  H  H415  1  0.97915704  0.90914297  0.66227906  1
  C  C416  1  0.86885717  0.94175790  0.74154377  1
  C  C417  1  0.62167274  0.67894503  0.76714999  1
  C  C418  1  0.58348761  0.53317650  0.77836852  1
  C  C419  1  0.76737747  0.69666811  0.79649144  1
  H  H420  1  0.70626878  0.70797744  0.88260600  1
  H  H421  1  0.67377667  0.53928658  0.80214702  1
  C  C422  1  0.86590512  0.59107147  0.75360554  1
  C  C423  1  0.85960058  0.70763660  0.82227307  1
  C  C424  1  0.88017543  0.72654854  0.88116102  1
  H  H425  1  0.87559384  0.74857079  0.93391556  1
  C  C426  1  0.65180230  0.56265097  0.75163739  1
  C  C427  1  0.97602294  0.74716989  0.90905510  1
  O  O428  1  0.53102606  0.80282081  0.93232366  1
  C  C429  1  0.88954853  0.81777643  0.80792893  1
  O  O430  1  0.71550690  0.87439916  0.96145947  1
  H  H431  1  0.72478545  0.91501416  0.86267706  1
  O  O432  1  0.70528981  0.97633678  0.79224474  1
  C  C433  1  0.63950528  0.89822889  0.98455882  1
  H  H434  1  0.65431811  0.99413295  0.84391111  1
  C  C435  1  0.99225630  0.86793375  0.85199814  1
  C  C436  1  0.60386974  0.87281367  0.82394010  1
  O  O437  1  0.67309063  0.97407055  0.89404603  1
  H  H438  1  0.55074045  0.76817516  0.87438935  1
  C  C439  1  0.67764694  0.96727113  0.76203645  1
  Cu  Cu440  1  0.55835171  0.86055262  0.92099345  1
  C  C441  1  0.77067753  0.88883538  0.84656630  1
  C  C442  1  0.65917398  0.83875822  0.80154997  1
  H  H443  1  0.94849577  0.79193999  0.79195078  1
