# generated using pymatgen
data_CuH10(C11O2)2
_symmetry_space_group_name_H-M   'P 1'
_cell_length_a   20.89593541
_cell_length_b   12.36712656
_cell_length_c   22.30156719
_cell_angle_alpha   90.00000000
_cell_angle_beta   90.00000000
_cell_angle_gamma   90.00000000
_symmetry_Int_Tables_number   1
_chemical_formula_structural   CuH10(C11O2)2
_chemical_formula_sum   'Cu12 H120 C264 O48'
_cell_volume   5763.23071432
_cell_formula_units_Z   12
loop_
 _symmetry_equiv_pos_site_id
 _symmetry_equiv_pos_as_xyz
  1  'x, y, z'
loop_
 _atom_site_type_symbol
 _atom_site_label
 _atom_site_symmetry_multiplicity
 _atom_site_fract_x
 _atom_site_fract_y
 _atom_site_fract_z
 _atom_site_occupancy
  C  C0  1  0.00985174  0.25421982  0.35521885  1
  H  H1  1  0.04100298  0.33352851  0.42935190  1
  H  H2  1  0.23129151  0.39866541  0.46650368  1
  C  C3  1  0.10333707  0.10278193  0.34440225  1
  C  C4  1  0.05333449  0.17395961  0.34821424  1
  C  C5  1  0.15569092  0.05500172  0.34478903  1
  O  O6  1  0.16561281  0.12971857  0.03665840  1
  C  C7  1  0.02828116  0.45301037  0.31040878  1
  C  C8  1  0.24912171  0.32250636  0.48439581  1
  C  C9  1  0.01567200  0.36358312  0.33245165  1
  C  C10  1  0.21492512  0.15704094  0.06699928  1
  O  O11  1  0.21589343  0.15932233  0.12276397  1
  C  C12  1  0.22105430  0.01593347  0.34816172  1
  Cu  Cu13  1  0.22996233  0.02363279  0.17267373  1
  O  O14  1  0.13649310  0.00753945  0.18256942  1
  Cu  Cu15  1  0.12236168  0.00556659  0.04297782  1
  H  H16  1  0.24765619  0.17572070  0.38528533  1
  C  C17  1  0.00565465  0.36081562  0.46340583  1
  H  H18  1  0.20586403  0.11007255  0.57798424  1
  C  C19  1  0.06658601  0.21439506  0.88103917  1
  C  C20  1  0.23398013  0.15962509  0.54554330  1
  C  C21  1  0.13960602  0.29427011  0.81006538  1
  H  H22  1  0.20144385  0.26244429  0.66444927  1
  C  C23  1  0.07995745  0.29991372  0.84322219  1
  C  C24  1  0.17127069  0.41841616  0.71602693  1
  C  C25  1  0.16651256  0.11496433  0.84624620  1
  C  C26  1  0.15549809  0.37009274  0.76012168  1
  C  C27  1  0.21200406  0.25859267  0.52416335  1
  C  C28  1  0.19491511  0.46363258  0.65842063  1
  C  C29  1  0.10900912  0.12279314  0.88055099  1
  H  H30  1  0.19120670  0.03852369  0.84454085  1
  C  C31  1  0.18063509  0.20042004  0.80775804  1
  C  C32  1  0.14464558  0.28622363  0.53557033  1
  H  H33  1  0.05034317  0.37440748  0.84128829  1
  C  C34  1  0.08810778  0.03326221  0.91768365  1
  C  C35  1  0.08905638  0.31290145  0.54025873  1
  C  C36  1  0.02424674  0.34829620  0.52568087  1
  H  H37  1  0.22077007  0.19680799  0.77492935  1
  C  C38  1  0.23163069  0.19465893  0.67682937  1
  O  O39  1  0.02399417  0.05325634  0.95319751  1
  H  H40  1  0.02176938  0.21172649  0.90639636  1
  H  H41  1  0.22588253  0.14763840  0.94587275  1
  H  H42  1  0.05017743  0.76380994  0.10893610  1
  H  H43  1  0.18558779  0.58755212  0.35114667  1
  C  C44  1  0.20966126  0.77579690  0.46164833  1
  C  C45  1  0.21030300  0.64336244  0.38230893  1
  C  C46  1  0.05549893  0.64495528  0.24882193  1
  C  C47  1  0.11007539  0.81919797  0.24547280  1
  C  C48  1  0.05526312  0.74798057  0.15699876  1
  H  H49  1  0.21793310  0.83960746  0.32526455  1
  O  O50  1  0.10634642  0.85523995  0.48746453  1
  C  C51  1  0.04021612  0.65197618  0.18354931  1
  C  C52  1  0.08774641  0.83522793  0.18567083  1
  H  H53  1  0.12462185  0.69012017  0.43064260  1
  C  C54  1  0.09897482  0.93953458  0.15798613  1
  H  H55  1  0.10790384  0.72572337  0.32696377  1
  O  O56  1  0.23841285  0.88843102  0.13329427  1
  C  C57  1  0.17631508  0.70303921  0.42430481  1
  H  H58  1  0.04139782  0.79571769  0.41197037  1
  O  O59  1  0.18461743  0.89511770  0.04898725  1
  C  C60  1  0.04361715  0.54834915  0.28213631  1
  O  O61  1  0.07533089  0.95946189  0.10631647  1
  C  C62  1  0.09289203  0.72925668  0.27889997  1
  H  H63  1  0.13495620  0.88696188  0.26785670  1
  C  C64  1  0.23714394  0.87723975  0.07713634  1
  H  H65  1  0.01579411  0.57992885  0.16368402  1
  C  C66  1  0.16953766  0.85180487  0.49804026  1
  H  H67  1  0.00329504  0.99604099  0.30718778  1
  C  C68  1  0.24885353  0.91149772  0.33276820  1
  C  C69  1  0.00523745  0.67407897  0.47541688  1
  C  C70  1  0.11638678  0.60640603  0.52788753  1
  C  C71  1  0.23147770  0.55953438  0.54474471  1
  C  C72  1  0.16190200  0.78547930  0.78679682  1
  O  O73  1  0.20626532  0.72871781  0.79027086  1
  C  C74  1  0.16856325  0.55855434  0.56420867  1
  Cu  Cu75  1  0.03986004  0.86199008  0.54056240  1
  H  H76  1  0.11757107  0.82957636  0.77827853  1
  O  O77  1  0.11333137  0.94880898  0.91593989  1
  H  H78  1  0.09822085  0.51033883  0.63108864  1
  O  O79  1  0.19189914  0.91312969  0.53396753  1
  C  C80  1  0.06757403  0.63618696  0.50374519  1
  C  C81  1  0.14941451  0.51091284  0.61979912  1
  H  H82  1  0.04655371  0.58150492  0.90738054  1
  C  C83  1  0.00684382  0.53202169  0.88822261  1
  H  H84  1  0.24405724  0.60214679  0.50118721  1
  C  C85  1  0.33356476  0.18522789  0.48779999  1
  H  H86  1  0.45022439  0.25925944  0.18500767  1
  H  H87  1  0.43035238  0.23580628  0.05108945  1
  C  C88  1  0.34577844  0.35002820  0.42204487  1
  H  H89  1  0.32904316  0.34307113  0.26811262  1
  H  H90  1  0.37036239  0.42907146  0.17263469  1
  C  C91  1  0.33181270  0.08189466  0.37679174  1
  C  C92  1  0.49374158  0.02054727  0.07552955  1
  C  C93  1  0.43602772  0.01728526  0.10552097  1
  H  H94  1  0.36762386  0.14401490  0.39248011  1
  C  C95  1  0.41618464  0.10374990  0.14409247  1
  C  C96  1  0.37312327  0.38718224  0.37839033  1
  H  H97  1  0.46748007  0.34409020  0.49171191  1
  C  C98  1  0.37334825  0.39346834  0.26853650  1
  C  C99  1  0.27243490  0.18084255  0.03195466  1
  C  C100  1  0.26737348  0.09702923  0.36970317  1
  C  C101  1  0.45983980  0.19143079  0.15463560  1
  C  C102  1  0.33141702  0.20157677  0.06042142  1
  H  H103  1  0.33035837  0.21475647  0.10913275  1
  C  C104  1  0.35751671  0.10684797  0.18221071  1
  O  O105  1  0.34467301  0.17099617  0.22047166  1
  C  C106  1  0.30974322  0.28570387  0.46584957  1
  C  C107  1  0.39569589  0.43708056  0.21610603  1
  C  C108  1  0.38765753  0.21296118  0.02877807  1
  C  C109  1  0.40477515  0.42626750  0.32452859  1
  O  O110  1  0.45906232  0.04039315  0.37665584  1
  C  C111  1  0.48700189  0.42049032  0.47787505  1
  H  H112  1  0.38239119  0.15681177  0.47773104  1
  C  C113  1  0.46134590  0.49500038  0.32706074  1
  O  O114  1  0.31766251  0.02621136  0.17274318  1
  C  C115  1  0.31862357  0.02526374  0.55744877  1
  C  C116  1  0.27240431  0.16523365  0.96866177  1
  C  C117  1  0.43060591  0.12399040  0.77163920  1
  H  H118  1  0.34221912  0.42655144  0.78161705  1
  C  C119  1  0.29754655  0.12819032  0.53007991  1
  O  O120  1  0.33361685  0.26770546  0.74137704  1
  H  H121  1  0.30149212  0.42684613  0.66340036  1
  H  H122  1  0.43687047  0.21400474  0.77645186  1
  C  C123  1  0.44978270  0.19288547  0.93645099  1
  O  O124  1  0.46689225  0.11777144  0.52823529  1
  C  C125  1  0.32891285  0.17568383  0.73152186  1
  C  C126  1  0.37169266  0.08840324  0.74241675  1
  C  C127  1  0.32741567  0.17263515  0.93536325  1
  O  O128  1  0.26594366  0.12973660  0.69447065  1
  C  C129  1  0.38729638  0.20109636  0.96406429  1
  H  H130  1  0.33003696  0.16055566  0.88724519  1
  H  H131  1  0.48974461  0.16085269  0.63074092  1
  C  C132  1  0.26085207  0.46239444  0.63953131  1
  C  C133  1  0.47416873  0.04054092  0.78134588  1
  C  C134  1  0.47063449  0.46315964  0.80396456  1
  O  O135  1  0.45328265  0.48565543  0.67262516  1
  C  C136  1  0.49960026  0.18104842  0.90837500  1
  C  C137  1  0.34392323  0.49789340  0.56066564  1
  C  C138  1  0.39675395  0.49855188  0.53662111  1
  C  C139  1  0.34043346  0.79939644  0.09329004  1
  C  C140  1  0.31399119  0.61469087  0.26370824  1
  H  H141  1  0.33111724  0.80998481  0.14329296  1
  H  H142  1  0.43542711  0.74921237  0.10797315  1
  C  C143  1  0.39942385  0.76229749  0.07583440  1
  C  C144  1  0.31288119  0.89430750  0.33565353  1
  C  C145  1  0.47597738  0.56607217  0.16520651  1
  C  C146  1  0.27694351  0.66590492  0.37604546  1
  C  C147  1  0.29898022  0.63760207  0.31594746  1
  C  C148  1  0.48277291  0.53501737  0.27320255  1
  C  C149  1  0.32238765  0.59433675  0.20392207  1
  C  C150  1  0.32015218  0.57485259  0.14287724  1
  H  H151  1  0.32731759  0.81114995  0.32905536  1
  H  H152  1  0.36562374  0.52655212  0.05716928  1
  H  H153  1  0.36180293  0.75678536  0.41434451  1
  H  H154  1  0.48831591  0.51625562  0.36955584  1
  O  O155  1  0.44430908  0.87220381  0.34758568  1
  C  C156  1  0.29330226  0.82822413  0.05066246  1
  C  C157  1  0.42205650  0.95909764  0.36023453  1
  C  C158  1  0.35280102  0.97838984  0.35635462  1
  C  C159  1  0.31099333  0.73489894  0.41963221  1
  H  H160  1  0.40471672  0.94860454  0.10243646  1
  C  C161  1  0.27687861  0.78915361  0.46321128  1
  C  C162  1  0.45248385  0.50667399  0.21809963  1
  H  H163  1  0.29908234  0.84623046  0.49620866  1
  H  H164  1  0.27289464  0.57553471  0.11997274  1
  O  O165  1  0.43545830  0.54632367  0.10583697  1
  C  C166  1  0.48320535  0.61955859  0.48973563  1
  C  C167  1  0.37499442  0.55145311  0.10614641  1
  C  C168  1  0.41076231  0.74654804  0.01201556  1
  H  H169  1  0.26131260  0.56442116  0.77659293  1
  C  C170  1  0.32268854  0.70167247  0.80426872  1
  H  H171  1  0.39608482  0.81801509  0.81824971  1
  C  C172  1  0.36283995  0.83943596  0.60413349  1
  C  C173  1  0.43226922  0.85280336  0.60887165  1
  C  C174  1  0.38681513  0.73086535  0.81304921  1
  H  H175  1  0.36657946  0.73423685  0.92203961  1
  C  C176  1  0.43545920  0.65771055  0.81711451  1
  C  C177  1  0.33332778  0.73759129  0.61726697  1
  C  C178  1  0.27854332  0.51019344  0.58432215  1
  C  C179  1  0.30389255  0.80513314  0.98940589  1
  C  C180  1  0.37085041  0.65332393  0.63971214  1
  H  H181  1  0.28254722  0.72749820  0.61536839  1
  C  C182  1  0.33438307  0.93921357  0.57981594  1
  C  C183  1  0.47424212  0.57171215  0.66070468  1
  H  H184  1  0.31745072  0.95878020  0.69951221  1
  C  C185  1  0.43624271  0.66837851  0.64103720  1
  H  H186  1  0.26378870  0.82283631  0.95875888  1
  C  C187  1  0.47230914  0.70503891  0.99460904  1
  H  H188  1  0.35237366  0.58012286  0.65769694  1
  H  H189  1  0.45195795  0.93522899  0.60103311  1
  H  H190  1  0.39731156  0.81704528  0.71990378  1
  O  O191  1  0.27283357  0.87715768  0.80735536  1
  C  C192  1  0.46296535  0.93025934  0.76476871  1
  C  C193  1  0.40669581  0.90127376  0.73258889  1
  C  C194  1  0.27189661  0.78336916  0.80577964  1
  C  C195  1  0.47012579  0.76460585  0.62288758  1
  C  C196  1  0.35985592  0.76173110  0.96969913  1
  C  C197  1  0.30833409  0.58937089  0.79150524  1
  C  C198  1  0.35612221  0.51510284  0.79070016  1
  C  C199  1  0.42089326  0.54747269  0.80365219  1
  H  H200  1  0.48584091  0.68894902  0.82578953  1
  C  C201  1  0.36320324  0.98016521  0.72378956  1
  C  C202  1  0.45666721  0.51283737  0.50347198  1
  H  H203  1  0.46401044  0.69468812  0.51111121  1
  C  C204  1  0.53999493  0.42904839  0.44188938  1
  C  C205  1  0.53356162  0.11798123  0.07482209  1
  C  C206  1  0.58821714  0.12791347  0.03660825  1
  H  H207  1  0.54187280  0.26860728  0.12825810  1
  H  H208  1  0.64975474  0.36733923  0.02278510  1
  C  C209  1  0.63438312  0.15796815  0.00778766  1
  H  H210  1  0.56230076  0.35397794  0.42033152  1
  O  O211  1  0.53156112  0.15149400  0.45468055  1
  Cu  Cu212  1  0.53694916  0.02285724  0.41429204  1
  O  O213  1  0.64685354  0.45803979  0.37509261  1
  H  H214  1  0.62916406  0.27418529  0.49261535  1
  Cu  Cu215  1  0.73686636  0.44276809  0.38859782  1
  H  H216  1  0.73366503  0.35821547  0.23123481  1
  C  C217  1  0.51484295  0.19495069  0.11997766  1
  H  H218  1  0.67604765  0.01410047  0.08555906  1
  O  O219  1  0.61900613  0.00199791  0.44750681  1
  H  H220  1  0.71757476  0.20132972  0.88492599  1
  C  C221  1  0.61948053  0.32197122  0.64743437  1
  C  C222  1  0.64744572  0.04564278  0.57877117  1
  H  H223  1  0.65676336  0.11144586  0.54949670  1
  H  H224  1  0.54409229  0.26416479  0.71113242  1
  C  C225  1  0.64328988  0.32279228  0.58703125  1
  C  C226  1  0.55840668  0.14944119  0.87801860  1
  C  C227  1  0.65536732  0.06312766  0.63922697  1
  C  C228  1  0.55181604  0.22659420  0.55720035  1
  C  C229  1  0.65892044  0.37992364  0.69262491  1
  H  H230  1  0.68420411  0.37368751  0.57680927  1
  H  H231  1  0.74507476  0.22572676  0.71256588  1
  C  C232  1  0.68707346  0.43168885  0.72987111  1
  C  C233  1  0.60970993  0.27506291  0.53965972  1
  C  C234  1  0.54994139  0.30144795  0.81449087  1
  H  H235  1  0.57767540  0.02025188  0.94132814  1
  C  C236  1  0.58535530  0.21148569  0.82540837  1
  C  C237  1  0.56304648  0.26197035  0.66442193  1
  C  C238  1  0.53128641  0.21439404  0.61736323  1
  H  H239  1  0.66763775  0.14062971  0.65894863  1
  H  H240  1  0.62557782  0.18975327  0.79620225  1
  C  C241  1  0.72828412  0.17096111  0.93238304  1
  C  C242  1  0.68012975  0.22011368  0.97607212  1
  H  H243  1  0.51832301  0.05303258  0.80775377  1
  C  C244  1  0.51488804  0.16134389  0.51224199  1
  C  C245  1  0.58304496  0.04976801  0.89598511  1
  O  O246  1  0.72596180  0.40268382  0.97832975  1
  H  H247  1  0.73376688  0.45345152  0.63554877  1
  C  C248  1  0.50986090  0.38845357  0.80638241  1
  C  C249  1  0.71675597  0.49181758  0.78336718  1
  C  C250  1  0.68630263  0.32686026  0.99320420  1
  O  O251  1  0.69655735  0.70488926  0.27392479  1
  C  C252  1  0.64063553  0.84811919  0.07584686  1
  C  C253  1  0.63041232  0.74608372  0.10346620  1
  O  O254  1  0.64158584  0.63857228  0.38631603  1
  C  C255  1  0.65260831  0.72555714  0.16051787  1
  C  C256  1  0.68248730  0.81244994  0.18916160  1
  H  H257  1  0.64515400  0.64461595  0.18477690  1
  C  C258  1  0.61948333  0.54231890  0.39280000  1
  C  C259  1  0.53533007  0.63304656  0.45362244  1
  H  H260  1  0.60126056  0.68239046  0.07817579  1
  C  C261  1  0.56131965  0.53482149  0.42824238  1
  Cu  Cu262  1  0.71746275  0.66047176  0.35099412  1
  C  C263  1  0.67127626  0.93393690  0.10619010  1
  H  H264  1  0.52206983  0.59155247  0.26844365  1
  C  C265  1  0.69174707  0.91704532  0.16452129  1
  C  C266  1  0.70448801  0.79895840  0.25072612  1
  O  O267  1  0.72977234  0.87407722  0.27997773  1
  C  C268  1  0.63169166  0.86597228  0.01134954  1
  H  H269  1  0.55518421  0.71266364  0.43840344  1
  Cu  Cu270  1  0.69620410  0.76074366  0.46742693  1
  H  H271  1  0.72257085  0.69641515  0.06673287  1
  H  H272  1  0.71966043  0.98358887  0.18668526  1
  O  O273  1  0.51944932  0.62435026  0.16200405  1
  O  O274  1  0.68539548  0.51569883  0.05733816  1
  O  O275  1  0.61915734  0.83272940  0.47247745  1
  C  C276  1  0.72236073  0.50482251  0.01691213  1
  H  H277  1  0.50491545  0.95338769  0.04582616  1
  C  C278  1  0.62214402  0.92966887  0.48853740  1
  O  O279  1  0.67115972  0.55827613  0.56450857  1
  O  O280  1  0.71025878  0.72267984  0.54891563  1
  C  C281  1  0.63064626  0.94778773  0.55303067  1
  C  C282  1  0.63025533  0.86609629  0.65258091  1
  C  C283  1  0.64783921  0.65716022  0.77411794  1
  C  C284  1  0.69734588  0.60346572  0.80152176  1
  C  C285  1  0.57975428  0.67146461  0.93772166  1
  C  C286  1  0.51560257  0.85550280  0.77638455  1
  C  C287  1  0.52182318  0.68897306  0.96620177  1
  H  H288  1  0.60501787  0.78308826  0.57619987  1
  C  C289  1  0.56272538  0.79905406  0.78578082  1
  H  H290  1  0.70174808  0.77468721  0.85584003  1
  C  C291  1  0.61654327  0.74323778  0.80701957  1
  C  C292  1  0.65072488  0.76592823  0.86724142  1
  C  C293  1  0.63207444  0.87670171  0.89261658  1
  H  H294  1  0.62371498  0.80338080  0.68590950  1
  O  O295  1  0.53848632  0.58744520  0.66568958  1
  C  C296  1  0.62857634  0.87588525  0.95681205  1
  C  C297  1  0.61632913  0.86013034  0.59187297  1
  H  H298  1  0.66340574  0.59578495  0.91738581  1
  C  C299  1  0.63237028  0.66873348  0.91061907  1
  H  H300  1  0.62420624  0.62362883  0.73388012  1
  H  H301  1  0.72050625  0.63745429  0.83987243  1
  H  H302  1  0.52261316  0.77307446  0.62698134  1
  C  C303  1  0.71525617  0.62881151  0.57024917  1
  Cu  Cu304  1  0.59825516  0.55293377  0.61113544  1
  C  C305  1  0.64762536  0.97240349  0.67822150  1
  H  H306  1  0.73511543  0.91087435  0.98995372  1
  C  C307  1  0.61948232  0.97579683  0.85981370  1
  C  C308  1  0.64142453  0.98939809  0.74279329  1
  C  C309  1  0.63355408  0.99409940  0.79688767  1
  C  C310  1  0.85594947  0.31824801  0.13176378  1
  H  H311  1  0.93419006  0.42430906  0.12900604  1
  O  O312  1  0.82120849  0.44773964  0.42038051  1
  C  C313  1  0.78228051  0.33784593  0.21504440  1
  C  C314  1  0.90470016  0.03428721  0.38746556  1
  H  H315  1  0.96580713  0.23407802  0.38391765  1
  C  C316  1  0.86713349  0.32435027  0.06600248  1
  C  C317  1  0.94466456  0.39904070  0.44841552  1
  Cu  Cu318  1  0.83775010  0.20744280  0.43819644  1
  H  H319  1  0.95063613  0.24876798  0.16122822  1
  H  H320  1  0.75725882  0.38156329  0.12446867  1
  H  H321  1  0.93116585  0.42048380  0.40142919  1
  C  C322  1  0.83293733  0.05050165  0.23590201  1
  C  C323  1  0.88634919  0.26154653  0.23390472  1
  H  H324  1  0.91900634  0.46770700  0.23850093  1
  C  C325  1  0.82764431  0.29702716  0.25649419  1
  H  H326  1  0.92323435  0.22951785  0.26359858  1
  C  C327  1  0.79340116  0.35229355  0.15491122  1
  H  H328  1  0.79111597  0.08981570  0.21537302  1
  C  C329  1  0.90109014  0.27335019  0.17356599  1
  O  O330  1  0.84778405  0.26088550  0.35778387  1
  H  H331  1  0.80460472  0.07344116  0.32695055  1
  O  O332  1  0.85419533  0.06294543  0.41159334  1
  C  C333  1  0.81039097  0.29515053  0.31908490  1
  O  O334  1  0.75322691  0.33061557  0.33393226  1
  C  C335  1  0.83134855  0.43310838  0.47919078  1
  C  C336  1  0.90218424  0.02176926  0.32275863  1
  C  C337  1  0.84124048  0.04604267  0.29545368  1
  C  C338  1  0.87801039  0.33199299  0.01267787  1
  O  O339  1  0.95380657  0.01563496  0.42049228  1
  C  C340  1  0.84923520  0.00720250  0.08678268  1
  C  C341  1  0.95653761  0.00503041  0.28662752  1
  C  C342  1  0.81001484  0.00328849  0.03653500  1
  C  C343  1  0.87551262  0.00962838  0.13590174  1
  C  C344  1  0.88680037  0.01712588  0.20090955  1
  C  C345  1  0.89707720  0.40735208  0.49499993  1
  H  H346  1  0.88072368  0.41417154  0.59093599  1
  O  O347  1  0.92606277  0.10479339  0.53613277  1
  C  C348  1  0.84895007  0.21626963  0.79701403  1
  C  C349  1  0.79862914  0.18669919  0.63280277  1
  C  C350  1  0.92993063  0.37572223  0.91239613  1
  H  H351  1  0.93135923  0.34261444  0.86728730  1
  H  H352  1  0.81465775  0.17807388  0.99865954  1
  O  O353  1  0.82774915  0.16038753  0.51458293  1
  C  C354  1  0.76721716  0.06271870  0.93759567  1
  C  C355  1  0.84802521  0.20057585  0.73278476  1
  C  C356  1  0.86088379  0.15321768  0.61482302  1
  C  C357  1  0.96266461  0.46997041  0.93065344  1
  C  C358  1  0.84302216  0.25003720  0.91394703  1
  C  C359  1  0.88654828  0.31591332  0.94795006  1
  C  C360  1  0.76054541  0.44062581  0.82111404  1
  H  H361  1  0.94957052  0.15920865  0.74251985  1
  H  H362  1  0.82143897  0.41082081  0.70546744  1
  C  C363  1  0.79317914  0.21077831  0.69200890  1
  C  C364  1  0.91621892  0.39717877  0.55619636  1
  C  C365  1  0.84581481  0.22874279  0.85125035  1
  C  C366  1  0.97701717  0.37197693  0.57192880  1
  C  C367  1  0.90916604  0.16646809  0.71078257  1
  C  C368  1  0.79976887  0.17853852  0.95048096  1
  C  C369  1  0.91657481  0.14172069  0.65115441  1
  C  C370  1  0.87159993  0.13910119  0.55159424  1
  H  H371  1  0.81805653  0.47974466  0.92960093  1
  H  H372  1  0.96196551  0.12115077  0.63218348  1
  H  H373  1  0.78988393  0.36916277  0.81853631  1
  O  O374  1  0.78889007  0.44115472  0.51459316  1
  H  H375  1  0.98553294  0.36902618  0.62178066  1
  H  H376  1  0.75649238  0.18925557  0.60237788  1
  C  C377  1  0.82430590  0.48182705  0.67599189  1
  C  C378  1  0.78944543  0.01034488  0.88260370  1
  H  H379  1  0.91275553  0.75667687  0.07920729  1
  H  H380  1  0.88976430  0.80614693  0.18773557  1
  H  H381  1  0.80575422  0.84290505  0.04163075  1
  C  C382  1  0.75927536  0.68412180  0.03217598  1
  C  C383  1  0.88819849  0.66752056  0.27988824  1
  O  O384  1  0.88959691  0.76159175  0.29941247  1
  C  C385  1  0.81906711  0.76971902  0.41983064  1
  C  C386  1  0.80328372  0.76516807  0.01758604  1
  C  C387  1  0.89752009  0.72319566  0.17422076  1
  C  C388  1  0.90001814  0.64016129  0.21592262  1
  C  C389  1  0.88309477  0.73601931  0.43698105  1
  H  H390  1  0.93001066  0.84996893  0.37552716  1
  C  C391  1  0.91080586  0.69905507  0.11424699  1
  C  C392  1  0.91568731  0.53116690  0.20107267  1
  C  C393  1  0.93793994  0.78614152  0.41188309  1
  O  O394  1  0.80455810  0.84215578  0.38434078  1
  Cu  Cu395  1  0.93856562  0.96513291  0.49640399  1
  C  C396  1  0.92648969  0.50675077  0.14312010  1
  C  C397  1  0.92481406  0.59167070  0.09806549  1
  O  O398  1  0.88305497  0.58614168  0.31332545  1
  Cu  Cu399  1  0.80911597  0.84213823  0.30067387  1
  H  H400  1  0.98799632  0.96215699  0.19709981  1
  Cu  Cu401  1  0.82897520  0.57749058  0.38169079  1
  O  O402  1  0.77580862  0.70941882  0.44605301  1
  C  C403  1  0.93826520  0.55348554  0.03672128  1
  C  C404  1  0.99914413  0.75301503  0.42920442  1
  C  C405  1  0.94727489  0.98560035  0.22710536  1
  C  C406  1  0.89100435  0.66339498  0.48455938  1
  C  C407  1  0.90350682  0.88529763  0.67289347  1
  H  H408  1  0.82489552  0.75753905  0.58390356  1
  C  C409  1  0.98669305  0.98105027  0.95344894  1
  H  H410  1  0.93033624  0.89191727  0.82504947  1
  O  O411  1  0.90207331  0.90168416  0.56520650  1
  C  C412  1  0.89987280  0.82546329  0.96041939  1
  C  C413  1  0.83847115  0.92565928  0.78148919  1
  C  C414  1  0.95042909  0.63147964  0.50364412  1
  H  H415  1  0.91374489  0.70702464  0.64978469  1
  C  C416  1  0.83683618  0.91142908  0.67245613  1
  C  C417  1  0.87457109  0.65297827  0.64549602  1
  C  C418  1  0.85092603  0.74426351  0.97321223  1
  C  C419  1  0.80335808  0.92315652  0.72544766  1
  C  C420  1  0.82563482  0.67656316  0.60651810  1
  C  C421  1  0.80890925  0.96879875  0.83716025  1
  H  H422  1  0.81436869  0.91909575  0.62841469  1
  C  C423  1  0.94058423  0.89770625  0.95587213  1
  C  C424  1  0.93398580  0.86678803  0.72970659  1
  C  C425  1  0.87630269  0.55797089  0.68246555  1
  C  C426  1  0.76489969  0.98747709  0.99464157  1
  H  H427  1  0.89414742  0.62485794  0.90492029  1
  C  C428  1  0.93214288  0.88271306  0.61237588  1
  C  C429  1  0.81537560  0.55902949  0.95392691  1
  C  C430  1  0.90438708  0.89737692  0.78210589  1
  C  C431  1  0.98504968  0.53877075  0.83137637  1
  C  C432  1  0.85559478  0.64375346  0.93704837  1
  C  C433  1  0.92207654  0.54248306  0.73056227  1
  H  H434  1  0.84739509  0.62552522  0.50176133  1
  C  C435  1  0.77212978  0.60392448  0.60446027  1
  H  H436  1  0.95474189  0.57553572  0.54399591  1
  C  C437  1  0.95489255  0.54087546  0.77703035  1
  C  C438  1  0.77648042  0.50638109  0.63536859  1
  H  H439  1  0.98514203  0.83606951  0.72874934  1
  O  O440  1  0.99161131  0.85879035  0.60787124  1
  H  H441  1  0.75281430  0.94443298  0.72312129  1
  C  C442  1  0.94808646  0.51245577  0.98787018  1
  C  C443  1  0.76733979  0.58625570  0.99861070  1
