# generated using pymatgen
data_Zn2H12C21(NO2)3
_symmetry_space_group_name_H-M   'P 1'
_cell_length_a   18.09627785
_cell_length_b   32.65729754
_cell_length_c   15.61178074
_cell_angle_alpha   90.00000000
_cell_angle_beta   90.00000000
_cell_angle_gamma   90.00000000
_symmetry_Int_Tables_number   1
_chemical_formula_structural   Zn2H12C21(NO2)3
_chemical_formula_sum   'Zn32 H192 C336 N48 O96'
_cell_volume   9226.18039567
_cell_formula_units_Z   16
loop_
 _symmetry_equiv_pos_site_id
 _symmetry_equiv_pos_as_xyz
  1  'x, y, z'
loop_
 _atom_site_type_symbol
 _atom_site_label
 _atom_site_symmetry_multiplicity
 _atom_site_fract_x
 _atom_site_fract_y
 _atom_site_fract_z
 _atom_site_occupancy
  H  H0  1  0.44329765  0.07925955  0.35449672  1
  C  C1  1  0.12343127  0.09918342  0.23814487  1
  C  C2  1  0.34971552  0.17909637  0.41610714  1
  C  C3  1  0.19837760  0.10870536  0.23392778  1
  N  N4  1  0.20044284  0.11328417  0.47858987  1
  C  C5  1  0.09315158  0.07770822  0.31618740  1
  H  H6  1  0.34620305  0.20511323  0.37462882  1
  C  C7  1  0.15142098  0.19222439  0.26959464  1
  O  O8  1  0.32142188  0.16030713  0.08216549  1
  H  H9  1  0.22843487  0.01553756  0.30689724  1
  H  H10  1  0.19823285  0.14581840  0.02716097  1
  N  N11  1  0.28522167  0.15902953  0.43261810  1
  C  C12  1  0.17645446  0.12990558  0.08629133  1
  H  H13  1  0.12874702  0.21071289  0.13332498  1
  Zn  Zn14  1  0.34851480  0.22325811  0.04828846  1
  C  C15  1  0.41280013  0.15902017  0.44816698  1
  C  C16  1  0.33156227  0.05473074  0.32880699  1
  C  C17  1  0.21429346  0.17143586  0.40330162  1
  C  C18  1  0.41671630  0.03097516  0.44450602  1
  C  C19  1  0.16388672  0.14238162  0.43306954  1
  C  C20  1  0.27621627  0.12204912  0.48013458  1
  H  H21  1  0.46322247  0.17746062  0.44156260  1
  C  C22  1  0.15025619  0.21758390  0.19855222  1
  O  O23  1  0.13713296  0.06123339  0.36842236  1
  C  C24  1  0.07435665  0.10625338  0.17160584  1
  H  H25  1  0.48692706  0.24558700  0.02911995  1
  C  C26  1  0.19460827  0.20598299  0.34359320  1
  C  C27  1  0.05403923  0.13265720  0.01733073  1
  H  H28  1  0.12683242  0.16025304  0.26430909  1
  H  H29  1  0.32330611  0.07856998  0.27641029  1
  C  C30  1  0.22387269  0.12371415  0.15521830  1
  H  H31  1  0.23291503  0.10256999  0.28729685  1
  C  C32  1  0.27827019  0.02355054  0.34450864  1
  O  O33  1  0.34887728  0.13159334  0.20496866  1
  C  C34  1  0.40042323  0.05596109  0.37277231  1
  C  C35  1  0.10176565  0.12140813  0.09393971  1
  H  H36  1  0.10287429  0.13897529  0.41715730  1
  H  H37  1  0.01662989  0.09934572  0.17970558  1
  C  C38  1  0.30682970  0.13828871  0.14730231  1
  C  C39  1  0.23247249  0.24298628  0.33490036  1
  H  H40  1  0.24352004  0.02483850  0.07163162  1
  O  O41  1  0.02482755  0.07776437  0.32225085  1
  H  H42  1  0.36092885  0.07669383  0.06735862  1
  N  N43  1  0.36754078  0.00077715  0.45918595  1
  H  H44  1  0.46813209  0.02816450  0.48185768  1
  O  O45  1  0.02350816  0.00997108  0.11620482  1
  C  C46  1  0.23807410  0.00375909  0.12455446  1
  H  H47  1  0.12332603  0.00634609  0.16453213  1
  C  C48  1  0.40703166  0.12280998  0.49800616  1
  C  C49  1  0.38957574  0.01671800  0.01863022  1
  C  C50  1  0.38067313  0.06010882  0.01211244  1
  Zn  Zn51  1  0.46347108  0.10301624  0.75846070  1
  H  H52  1  0.26988368  0.17782577  0.62399414  1
  O  O53  1  0.19129580  0.06969448  0.63289690  1
  C  C54  1  0.34804403  0.16366412  0.82135599  1
  C  C55  1  0.23611002  0.11929557  0.73368729  1
  C  C56  1  0.17725613  0.09893200  0.68453355  1
  O  O57  1  0.11350589  0.10827637  0.70141048  1
  C  C58  1  0.33836912  0.10538729  0.52069378  1
  H  H59  1  0.39394930  0.18350435  0.84257250  1
  C  C60  1  0.31023444  0.10328258  0.72710584  1
  H  H61  1  0.16193461  0.16569140  0.79107633  1
  H  H62  1  0.22653441  0.17706175  0.54093992  1
  O  O63  1  0.04051307  0.02597892  0.52725271  1
  N  N64  1  0.43515696  0.06266065  0.87282230  1
  C  C65  1  0.21657149  0.15274612  0.78456571  1
  H  H66  1  0.33608656  0.07756137  0.56156119  1
  Zn  Zn67  1  0.08770849  0.21776014  0.95805492  1
  O  O68  1  0.30000891  0.23386775  0.91500121  1
  C  C69  1  0.25329141  0.21301592  0.87777861  1
  H  H70  1  0.40482334  0.11443096  0.92975363  1
  O  O71  1  0.08360320  0.15371465  0.95666945  1
  C  C72  1  0.36028365  0.12816952  0.77485551  1
  C  C73  1  0.47638052  0.10802166  0.54341966  1
  H  H74  1  0.32241462  0.07460941  0.69198255  1
  C  C75  1  0.27162147  0.17533831  0.82706203  1
  O  O76  1  0.18661257  0.22367994  0.88035332  1
  O  O77  1  0.06921965  0.00696933  0.81028268  1
  C  C78  1  0.44494954  0.02193582  0.87584673  1
  C  C79  1  0.40668357  0.08069334  0.93890731  1
  O  O80  1  0.47284751  0.08277894  0.59906785  1
  O  O81  1  0.22679940  0.18862676  0.59464118  1
  Zn  Zn82  1  0.03954787  0.06228671  0.76294372  1
  H  H83  1  0.00871870  0.05052517  0.97149122  1
  H  H84  1  0.46493477  0.01056663  0.81542885  1
  C  C85  1  0.49512365  0.19145004  0.91403210  1
  O  O86  1  0.00466295  0.06999987  0.62413767  1
  O  O87  1  0.48271667  0.22137972  0.87699726  1
  Zn  Zn88  1  0.14823143  0.05777035  0.51492987  1
  C  C89  1  0.13017147  0.48589069  0.06230398  1
  C  C90  1  0.16756297  0.46591458  0.12963043  1
  C  C91  1  0.47750933  0.42099076  0.18478681  1
  C  C92  1  0.43317724  0.36824530  0.28058655  1
  O  O93  1  0.41197583  0.25443454  0.24148940  1
  C  C94  1  0.19871779  0.42457770  0.45217708  1
  Zn  Zn95  1  0.18842398  0.28319509  0.07206984  1
  H  H96  1  0.16658593  0.47982006  0.19244997  1
  H  H97  1  0.06775820  0.39241422  0.38953867  1
  H  H98  1  0.24344003  0.29711001  0.23482860  1
  O  O99  1  0.16909413  0.35906999  0.31823283  1
  C  C100  1  0.14682464  0.37001432  0.24743934  1
  Zn  Zn101  1  0.29803653  0.36854668  0.38774684  1
  H  H102  1  0.42452460  0.33751099  0.31226007  1
  H  H103  1  0.06306231  0.31481537  0.16367264  1
  C  C104  1  0.04091248  0.40292716  0.32691359  1
  C  C105  1  0.41857481  0.44711264  0.20845384  1
  N  N106  1  0.18673318  0.25310096  0.19299296  1
  C  C107  1  0.21388149  0.43175333  0.11677689  1
  H  H108  1  0.25129372  0.41594836  0.16374369  1
  C  C109  1  0.40136502  0.26795077  0.30846803  1
  N  N110  1  0.37806923  0.39125567  0.30641880  1
  O  O111  1  0.17339289  0.35445485  0.18411982  1
  C  C112  1  0.48448729  0.38147554  0.21821753  1
  C  C113  1  0.34890817  0.28348382  0.04277803  1
  C  C114  1  0.15202927  0.49321265  0.42175239  1
  C  C115  1  0.49128381  0.27828184  0.03764419  1
  O  O116  1  0.18509042  0.49219530  0.35296856  1
  H  H117  1  0.22641057  0.42842628  0.38776277  1
  C  C118  1  0.04705617  0.41132750  0.17372632  1
  C  C119  1  0.42320182  0.29927950  0.03364040  1
  N  N120  1  0.28990195  0.30359074  0.04623027  1
  C  C121  1  0.37289184  0.42818448  0.27136893  1
  H  H122  1  0.42258619  0.33328891  0.03398148  1
  C  C123  1  0.07725935  0.39728381  0.24885523  1
  H  H124  1  0.32164024  0.44402558  0.29330384  1
  H  H125  1  0.40489185  0.47578702  0.17645515  1
  H  H126  1  0.07459810  0.40489761  0.11742621  1
  C  C127  1  0.22094158  0.26736478  0.26119346  1
  C  C128  1  0.01771250  0.31494695  0.11522642  1
  N  N129  1  0.21867305  0.41330356  0.03953949  1
  C  C130  1  0.47352234  0.47908334  0.45105903  1
  C  C131  1  0.15104918  0.45546469  0.47949742  1
  N  N132  1  0.08583329  0.26812659  0.02359618  1
  O  O133  1  0.38850939  0.28314189  0.37519639  1
  C  C134  1  0.02706731  0.29149214  0.03902983  1
  H  H135  1  0.32076895  0.44244805  0.01890015  1
  Zn  Zn136  1  0.27595296  0.36185775  0.02624424  1
  H  H137  1  0.26994700  0.25552822  0.38440866  1
  C  C138  1  0.24136213  0.34878731  0.49506283  1
  C  C139  1  0.32240234  0.43718469  0.65381939  1
  C  C140  1  0.40614795  0.37241895  0.90689876  1
  C  C141  1  0.47061618  0.43556236  0.88251440  1
  O  O142  1  0.06539060  0.38298072  0.72542420  1
  H  H143  1  0.19077170  0.41565777  0.91513530  1
  C  C144  1  0.37127932  0.41149694  0.60110167  1
  C  C145  1  0.36430916  0.43181077  0.97559843  1
  C  C146  1  0.15400753  0.38785572  0.58269642  1
  N  N147  1  0.45861039  0.36353447  0.55177535  1
  N  N148  1  0.41766320  0.42867697  0.53849703  1
  H  H149  1  0.36736555  0.41275764  0.77595461  1
  C  C150  1  0.05668589  0.41242838  0.67932174  1
  H  H151  1  0.14955739  0.32243205  0.87302214  1
  H  H152  1  0.15106919  0.36174209  0.62731325  1
  C  C153  1  0.40362503  0.37131480  0.60622032  1
  C  C154  1  0.20080737  0.38828300  0.50837012  1
  C  C155  1  0.33274740  0.43620638  0.74464102  1
  N  N156  1  0.35856781  0.39166132  0.95643721  1
  C  C157  1  0.30416613  0.46731151  0.79461039  1
  H  H158  1  0.39705495  0.34002397  0.90751818  1
  O  O159  1  0.24950816  0.31738520  0.53005960  1
  H  H160  1  0.38812174  0.34518208  0.64784941  1
  H  H161  1  0.31818563  0.47211095  0.86326710  1
  C  C162  1  0.24136505  0.49446913  0.68821634  1
  H  H163  1  0.42308162  0.48752844  0.95516679  1
  O  O164  1  0.15215372  0.33134586  0.92944424  1
  C  C165  1  0.47309650  0.40034540  0.51141136  1
  C  C166  1  0.41918783  0.45559021  0.93625885  1
  C  C167  1  0.46312299  0.39318415  0.86409780  1
  C  C168  1  0.10715437  0.42020010  0.60112950  1
  C  C169  1  0.26575635  0.46662567  0.62618409  1
  H  H170  1  0.10036578  0.32832464  0.94404800  1
  H  H171  1  0.12043532  0.48321091  0.92074665  1
  O  O172  1  0.00164988  0.43619116  0.68620239  1
  C  C173  1  0.10131471  0.45346428  0.54751267  1
  H  H174  1  0.06607995  0.47989391  0.56741926  1
  H  H175  1  0.24464926  0.46574749  0.56150982  1
  N  N176  1  0.25619580  0.49504898  0.77178600  1
  H  H177  1  0.08514057  0.49777888  0.76763146  1
  H  H178  1  0.36926986  0.48664519  0.53390849  1
  O  O179  1  0.02593108  0.42010452  0.97668727  1
  C  C180  1  0.41426334  0.46778567  0.50359946  1
  C  C181  1  0.18326038  0.43146317  0.97579646  1
  C  C182  1  0.14794472  0.46945905  0.98069863  1
  H  H183  1  0.41078112  0.59193215  0.39456450  1
  H  H184  1  0.27610641  0.72029120  0.25551517  1
  O  O185  1  0.36605092  0.73104412  0.12754905  1
  C  C186  1  0.43089395  0.57592871  0.45106876  1
  O  O187  1  0.27830303  0.57424689  0.42791155  1
  C  C188  1  0.45269915  0.57213025  0.13044404  1
  O  O189  1  0.34313178  0.71115004  0.47449210  1
  C  C190  1  0.15388924  0.64799882  0.09885850  1
  C  C191  1  0.20637656  0.61826772  0.06523294  1
  C  C192  1  0.31371229  0.72042808  0.07692703  1
  H  H193  1  0.08005927  0.66135893  0.35103957  1
  O  O194  1  0.26832133  0.64317334  0.24661698  1
  H  H195  1  0.04329369  0.65628425  0.14447084  1
  C  C196  1  0.08432999  0.63391234  0.12053192  1
  H  H197  1  0.17065656  0.67988554  0.10459085  1
  C  C198  1  0.01438657  0.73391160  0.18518514  1
  Zn  Zn199  1  0.16078522  0.58287475  0.41360266  1
  C  C200  1  0.06595528  0.59099604  0.11519601  1
  C  C201  1  0.10960836  0.68892198  0.34327533  1
  C  C202  1  0.08301064  0.73540025  0.04910237  1
  C  C203  1  0.08755347  0.72705605  0.37947232  1
  O  O204  1  0.12155373  0.52654644  0.44844490  1
  C  C205  1  0.19017251  0.57759824  0.05489226  1
  C  C206  1  0.17931401  0.69144815  0.30509064  1
  O  O207  1  0.16494952  0.61703865  0.29802667  1
  C  C208  1  0.20868049  0.64776089  0.28178356  1
  N  N209  1  0.12122653  0.56442116  0.07923442  1
  N  N210  1  0.02260079  0.70996629  0.01642767  1
  H  H211  1  0.41897124  0.58773997  0.17978465  1
  C  C212  1  0.01891534  0.52937702  0.11319943  1
  C  C213  1  0.34235643  0.69431702  0.00398476  1
  C  C214  1  0.43874168  0.58347898  0.04433070  1
  O  O215  1  0.25116661  0.73501767  0.08068731  1
  C  C216  1  0.08820527  0.52528847  0.07646897  1
  H  H217  1  0.47739394  0.51172721  0.43518379  1
  C  C218  1  0.22205454  0.72454321  0.28739998  1
  C  C219  1  0.07357556  0.74930994  0.13441921  1
  H  H220  1  0.22347124  0.55211579  0.03608791  1
  H  H221  1  0.45406666  0.69119783  0.04775400  1
  O  O222  1  0.08395732  0.61450688  0.49472974  1
  C  C223  1  0.01671510  0.72521168  0.42123700  1
  C  C224  1  0.28615331  0.72860226  0.49175862  1
  H  H225  1  0.01043857  0.74713555  0.25168451  1
  H  H226  1  0.39804924  0.60868132  0.03268365  1
  N  N227  1  0.00473535  0.56796135  0.13400428  1
  H  H228  1  0.26281798  0.62739857  0.05144746  1
  C  C229  1  0.31863665  0.65955781  0.87296859  1
  H  H230  1  0.37445879  0.52761899  0.64080628  1
  C  C231  1  0.07313363  0.71204778  0.63445314  1
  C  C232  1  0.38473361  0.56226799  0.51583133  1
  C  C233  1  0.08633485  0.58387801  0.86257611  1
  H  H234  1  0.07089265  0.66685536  0.77884971  1
  C  C235  1  0.30221752  0.56792468  0.50374327  1
  C  C236  1  0.41080251  0.54140034  0.58949545  1
  C  C237  1  0.04473124  0.60091788  0.55714955  1
  N  N238  1  0.10536499  0.54950803  0.82217138  1
  C  C239  1  0.03343186  0.69972374  0.93158333  1
  H  H240  1  0.49803748  0.57935558  0.75134644  1
  H  H241  1  0.13485043  0.72277813  0.85473155  1
  O  O242  1  0.07246007  0.58960711  0.62619427  1
  H  H243  1  0.13605683  0.60305367  0.87188855  1
  H  H244  1  0.46005448  0.57130516  0.90513737  1
  C  C245  1  0.10013753  0.72220094  0.91584089  1
  O  O246  1  0.19800565  0.65692148  0.80862862  1
  C  C247  1  0.21847659  0.72074289  0.54490105  1
  O  O248  1  0.28953297  0.62620756  0.74327588  1
  C  C249  1  0.26397798  0.64698952  0.80581936  1
  C  C250  1  0.05409662  0.52066006  0.80515037  1
  C  C251  1  0.39196495  0.64539472  0.86693393  1
  C  C252  1  0.19466204  0.68541473  0.59008561  1
  H  H253  1  0.23395253  0.69439716  0.94908046  1
  H  H254  1  0.40535270  0.61031028  0.64761319  1
  C  C255  1  0.48716985  0.53639471  0.59036687  1
  O  O256  1  0.47666116  0.50664726  0.72902604  1
  C  C257  1  0.46698789  0.61733559  0.63992276  1
  Zn  Zn258  1  0.19134148  0.62571675  0.63425608  1
  C  C259  1  0.12812487  0.68116948  0.63124992  1
  H  H260  1  0.45363182  0.66544610  0.55452575  1
  C  C261  1  0.46259888  0.74146159  0.73775668  1
  C  C262  1  0.43767892  0.65618205  0.93146991  1
  C  C263  1  0.29214654  0.68304568  0.94155880  1
  C  C264  1  0.01122815  0.66368406  0.79012269  1
  H  H265  1  0.41432256  0.62879167  0.81420384  1
  C  C266  1  0.47494381  0.56491468  0.97239098  1
  N  N267  1  0.38939778  0.74831384  0.74659531  1
  H  H268  1  0.19931255  0.51887153  0.67667383  1
  C  C269  1  0.49644424  0.64852724  0.58652056  1
  H  H270  1  0.01730363  0.70975402  0.66487905  1
  O  O271  1  0.25776237  0.56817471  0.56369162  1
  N  N272  1  0.12904879  0.74292823  0.98070544  1
  H  H273  1  0.49787040  0.69763190  0.83570461  1
  C  C274  1  0.01442628  0.58800087  0.89348865  1
  C  C275  1  0.09894533  0.74733445  0.59233434  1
  C  C276  1  0.41617239  0.68200280  0.99807036  1
  H  H277  1  0.11423129  0.77249302  0.16061260  1
  C  C278  1  0.23848444  0.79821457  0.31446733  1
  C  C279  1  0.25714938  0.94170250  0.25805969  1
  H  H280  1  0.40601471  0.77108047  0.46794762  1
  H  H281  1  0.26392136  0.84721157  0.43076046  1
  H  H282  1  0.45415876  0.91545675  0.48370864  1
  C  C283  1  0.41723721  0.95942546  0.13491981  1
  Zn  Zn284  1  0.16203351  0.91637733  0.38364055  1
  Zn  Zn285  1  0.44262420  0.90576981  0.30442053  1
  H  H286  1  0.41562834  0.81702730  0.33509491  1
  O  O287  1  0.05317462  0.96543744  0.29777951  1
  H  H288  1  0.26479901  0.91534202  0.30317813  1
  O  O289  1  0.46009386  0.83905071  0.17781482  1
  C  C290  1  0.44868812  0.88127722  0.48777480  1
  C  C291  1  0.17670228  0.99122688  0.17507830  1
  O  O292  1  0.00575291  0.84881947  0.09568676  1
  Zn  Zn293  1  0.41134171  0.79093389  0.10347641  1
  N  N294  1  0.38836609  0.94060782  0.20428813  1
  H  H295  1  0.25661367  0.88413754  0.03128175  1
  C  C296  1  0.31496115  0.95449626  0.20227789  1
  C  C297  1  0.18676497  0.96350395  0.24311499  1
  C  C298  1  0.12314505  0.76454232  0.36351256  1
  C  C299  1  0.11636780  0.95565656  0.29542963  1
  O  O300  1  0.27327960  0.82831067  0.30641066  1
  C  C301  1  0.19132945  0.76256430  0.31982364  1
  N  N302  1  0.43668082  0.86689492  0.41260620  1
  C  C303  1  0.42286400  0.82662163  0.40427831  1
  O  O304  1  0.30701561  0.81012295  0.04363533  1
  C  C305  1  0.37333410  0.99067822  0.09583884  1
  H  H306  1  0.47677676  0.95113301  0.11336820  1
  N  N307  1  0.30594707  0.98587460  0.13805561  1
  C  C308  1  0.30059722  0.99433620  0.40907081  1
  H  H309  1  0.09596307  0.79371811  0.38891702  1
  N  N310  1  0.27083089  0.95733643  0.43533617  1
  H  H311  1  0.49661816  0.87780590  0.05290036  1
  C  C312  1  0.41947398  0.80275823  0.47821873  1
  H  H313  1  0.29380767  0.75565142  0.43862424  1
  C  C314  1  0.24336082  0.85660840  0.49638027  1
  N  N315  1  0.19325549  0.88612063  0.49775471  1
  N  N316  1  0.24634842  0.82035145  0.88772625  1
  C  C317  1  0.41337517  0.94989338  0.66594182  1
  H  H318  1  0.43907185  0.96525753  0.94661869  1
  C  C319  1  0.43515481  0.81689706  0.56377270  1
  O  O320  1  0.13052979  0.95396367  0.76588064  1
  H  H321  1  0.12709027  0.92372114  0.54980846  1
  C  C322  1  0.25138006  0.84604186  0.74705571  1
  C  C323  1  0.27842393  0.93160540  0.93958487  1
  C  C324  1  0.07573899  0.97472580  0.76406041  1
  C  C325  1  0.28625701  0.94322702  0.85142937  1
  C  C326  1  0.43171290  0.97239734  0.58989898  1
  C  C327  1  0.27202180  0.91668093  0.78315870  1
  Zn  Zn328  1  0.04016645  0.79917388  0.60051788  1
  H  H329  1  0.06379722  0.90719025  0.65027852  1
  H  H330  1  0.36004409  0.93855907  0.67566353  1
  H  H331  1  0.27155669  0.92253746  0.71381945  1
  C  C332  1  0.46639343  0.94633168  0.72941205  1
  O  O333  1  0.45551104  0.78327059  0.92159507  1
  O  O334  1  0.02899885  0.81759075  0.76595074  1
  H  H335  1  0.21619962  0.78232307  0.79229841  1
  C  C336  1  0.44725834  0.85916837  0.56657444  1
  H  H337  1  0.31020654  0.97285651  0.83639405  1
  H  H338  1  0.15644308  0.89945149  0.70929935  1
  C  C339  1  0.16614756  0.90003332  0.56916238  1
  C  C340  1  0.26032439  0.89126838  0.96448265  1
  C  C341  1  0.26776463  0.84090371  0.57399125  1
  H  H342  1  0.31104754  0.81855707  0.56971604  1
  H  H343  1  0.29506968  0.91808483  0.53997808  1
  C  C344  1  0.23629882  0.85499912  0.65430184  1
  C  C345  1  0.16709889  0.75480187  0.55430109  1
  C  C346  1  0.18430038  0.88697274  0.65293945  1
  N  N347  1  0.25987799  0.87689285  0.80785985  1
  C  C348  1  0.24224239  0.81189548  0.80555214  1
  H  H349  1  0.18147944  0.78558824  0.52560835  1
  C  C350  1  0.25910346  0.86141133  0.89551283  1
  N  N351  1  0.48849556  0.76503776  0.66468347  1
  C  C352  1  0.42709534  0.78776853  0.63897914  1
  Zn  Zn353  1  0.21772416  0.78284840  0.98895710  1
  H  H354  1  0.02219020  0.82944486  0.92397604  1
  C  C355  1  0.36881710  0.77654617  0.69066817  1
  C  C356  1  0.01022655  0.92368067  0.65961965  1
  H  H357  1  0.46153326  0.87766686  0.62546719  1
  C  C358  1  0.00812722  0.95842940  0.71296811  1
  C  C359  1  0.31334013  0.94600668  0.50274530  1
  C  C360  1  0.37554577  0.97065088  0.52135517  1
  H  H361  1  0.46172809  0.92855582  0.78798362  1
  O  O362  1  0.01561971  0.85851333  0.55257523  1
  H  H363  1  0.31054419  0.78520087  0.68316860  1
  H  H364  1  0.32420358  0.81622361  0.98703826  1
  H  H365  1  0.00998615  0.90655495  0.85800245  1
  C  C366  1  0.42296381  0.99805914  0.94280618  1
  H  H367  1  0.28755967  0.95770641  0.98287368  1
  H  H368  1  0.72077865  0.08379833  0.41518096  1
  Zn  Zn369  1  0.95968176  0.12607905  0.38150985  1
  C  C370  1  0.93097695  0.22359355  0.36156662  1
  Zn  Zn371  1  0.62107142  0.12442181  0.44777252  1
  H  H372  1  0.91738292  0.00758636  0.42613931  1
  H  H373  1  0.79472071  0.01286219  0.07914965  1
  O  O374  1  0.99040986  0.12235817  0.01700593  1
  C  C375  1  0.61516033  0.03429966  0.45118226  1
  C  C376  1  0.90980042  0.18483085  0.39101928  1
  O  O377  1  0.65962961  0.21699382  0.32556696  1
  C  C378  1  0.82807154  0.02369720  0.02481508  1
  O  O379  1  0.72716144  0.02101108  0.31535817  1
  O  O380  1  0.68183749  0.15241753  0.34812705  1
  C  C381  1  0.83692875  0.17154909  0.36701708  1
  H  H382  1  0.98598788  0.23538602  0.36395493  1
  O  O383  1  0.58294480  0.06232952  0.40847854  1
  C  C384  1  0.81754978  0.04481335  0.41481153  1
  C  C385  1  0.77648269  0.07659373  0.44629710  1
  H  H386  1  0.81812366  0.13964916  0.36857695  1
  C  C387  1  0.70195020  0.18934949  0.34694787  1
  C  C388  1  0.90681537  0.02348883  0.03080612  1
  C  C389  1  0.78170014  0.20286255  0.35686210  1
  C  C390  1  0.88665871  0.03403269  0.44970043  1
  C  C391  1  0.79022180  0.01842257  0.33984142  1
  C  C392  1  0.79734531  0.24318240  0.35350539  1
  C  C393  1  0.94126181  0.17467231  0.47966642  1
  C  C394  1  0.95962512  0.01394892  0.09954425  1
  H  H395  1  0.56087848  0.11110292  0.89273281  1
  H  H396  1  0.73263760  0.03849848  0.92969244  1
  C  C397  1  0.80564678  0.07338291  0.80950822  1
  O  O398  1  0.53416407  0.13007222  0.53280769  1
  C  C399  1  0.60254179  0.09796201  0.85164855  1
  O  O400  1  0.99986761  0.18315250  0.51017745  1
  C  C401  1  0.91128633  0.04930609  0.87877028  1
  O  O402  1  0.70518564  0.14028819  0.55028583  1
  C  C403  1  0.95965233  0.03291966  0.95044597  1
  C  C404  1  0.77160297  0.13452641  0.56267379  1
  C  C405  1  0.61344528  0.07581365  0.71022409  1
  C  C406  1  0.67873211  0.09154577  0.86546405  1
  H  H407  1  0.80499576  0.01245031  0.74517532  1
  N  N408  1  0.57304614  0.09019327  0.77478337  1
  C  C409  1  0.87217284  0.07910646  0.76126539  1
  H  H410  1  0.57849290  0.07438777  0.65025292  1
  C  C411  1  0.72497562  0.07794771  0.79734349  1
  C  C412  1  0.68771472  0.06851088  0.71561680  1
  H  H413  1  0.98199751  0.00349710  0.92645492  1
  H  H414  1  0.70360992  0.09766262  0.92761960  1
  H  H415  1  0.91075414  0.11213851  0.58807748  1
  Zn  Zn416  1  0.85883105  0.21702527  0.54788015  1
  H  H417  1  0.88311719  0.09399714  0.69616507  1
  H  H418  1  0.71312299  0.22065575  0.52651037  1
  N  N419  1  0.83290650  0.05312377  0.88372066  1
  C  C420  1  0.80575627  0.09881221  0.51742079  1
  H  H421  1  0.94352245  0.00373342  0.77385616  1
  H  H422  1  0.71464183  0.06161491  0.65518696  1
  N  N423  1  0.93224064  0.06665818  0.80668299  1
  O  O424  1  0.81163734  0.15777911  0.60818881  1
  C  C425  1  0.87826876  0.09108172  0.54659344  1
  O  O426  1  0.56183083  0.22593411  0.56078145  1
  C  C427  1  0.91834966  0.05840842  0.51517530  1
  C  C428  1  0.79279713  0.03763057  0.95010861  1
  O  O429  1  0.65035796  0.04232135  0.51727185  1
  C  C430  1  0.99226720  0.04879771  0.56029514  1
  H  H431  1  0.52297899  0.00895422  0.53592149  1
  H  H432  1  0.60041687  0.00424125  0.67168298  1
  O  O433  1  0.50716032  0.16060525  0.94966091  1
  O  O434  1  0.84625379  0.32579788  0.31537937  1
  H  H435  1  0.50771759  0.35223436  0.05151957  1
  C  C436  1  0.87592774  0.25299858  0.35269832  1
  C  C437  1  0.95168236  0.33678440  0.12444809  1
  C  C438  1  0.90188350  0.29501797  0.34640214  1
  O  O439  1  0.96507568  0.30624211  0.35313675  1
  N  N440  1  0.59779730  0.37642221  0.06994787  1
  O  O441  1  0.88099203  0.44519504  0.41950215  1
  H  H442  1  0.93641730  0.34755610  0.18951256  1
  Zn  Zn443  1  0.55870894  0.43414999  0.09767621  1
  C  C444  1  0.93959834  0.42745656  0.41317545  1
  C  C445  1  0.97409162  0.42388469  0.32439030  1
  C  C446  1  0.97732721  0.43109193  0.17371222  1
  H  H447  1  0.72839710  0.40639741  0.43526936  1
  C  C448  1  0.93749530  0.44495636  0.09545342  1
  N  N449  1  0.69583790  0.47959058  0.28249577  1
  C  C450  1  0.93718502  0.43460683  0.25013842  1
  C  C451  1  0.56080085  0.29569647  0.04298471  1
  C  C452  1  0.71054866  0.43564979  0.40954875  1
  O  O453  1  0.86689733  0.45766506  0.10848440  1
  H  H454  1  0.88518951  0.44915128  0.25495212  1
  C  C455  1  0.68933251  0.46809462  0.46234969  1
  H  H456  1  0.75276487  0.26646483  0.34535183  1
  H  H457  1  0.87039706  0.34962649  0.33448363  1
  H  H458  1  0.57349169  0.38997320  0.42964187  1
  H  H459  1  0.73177377  0.42054684  0.27104917  1
  C  C460  1  0.71369587  0.44368128  0.31732483  1
  O  O461  1  0.97355845  0.41451579  0.48087734  1
  H  H462  1  0.52456157  0.35945822  0.19258428  1
  C  C463  1  0.56529293  0.33936709  0.05105516  1
  Zn  Zn464  1  0.69567534  0.49172342  0.15992227  1
  H  H465  1  0.57781935  0.46312392  0.38424297  1
  N  N466  1  0.60016504  0.49462561  0.08244156  1
  C  C467  1  0.90259534  0.33469800  0.05386786  1
  H  H468  1  0.84540327  0.34683876  0.06395299  1
  C  C469  1  0.53108503  0.41092845  0.45063342  1
  C  C470  1  0.81415663  0.45823344  0.04172546  1
  N  N471  1  0.74789038  0.47369444  0.05364718  1
  C  C472  1  0.98213235  0.43210469  0.02667910  1
  C  C473  1  0.66423549  0.36213680  0.06403518  1
  H  H474  1  0.61151605  0.27702749  0.04741453  1
  O  O475  1  0.72843067  0.36280826  0.06313666  1
  C  C476  1  0.53080593  0.45164653  0.42431309  1
  C  C477  1  0.79094144  0.27063472  0.55023379  1
  Zn  Zn478  1  0.52483247  0.30943416  0.53955363  1
  C  C479  1  0.74511863  0.33886503  0.56467536  1
  C  C480  1  0.85822580  0.41350771  0.91221323  1
  Zn  Zn481  1  0.66923381  0.46809117  0.59170076  1
  C  C482  1  0.98390900  0.27630603  0.88516542  1
  C  C483  1  0.82644289  0.39734514  0.83561338  1
  H  H484  1  0.90965474  0.40029541  0.94046897  1
  H  H485  1  0.86433574  0.32424745  0.56647674  1
  Zn  Zn486  1  0.55491264  0.47098227  0.83574479  1
  C  C487  1  0.81365185  0.44387995  0.95277929  1
  C  C488  1  0.70189245  0.42902081  0.83095525  1
  C  C489  1  0.75367977  0.38189240  0.59412754  1
  C  C490  1  0.66059194  0.28229683  0.54345165  1
  Zn  Zn491  1  0.66640166  0.48348556  0.97354119  1
  H  H492  1  0.86195002  0.37631108  0.80150382  1
  H  H493  1  0.62845030  0.34875724  0.56546459  1
  H  H494  1  0.73368267  0.38374166  0.74648810  1
  C  C495  1  0.67263740  0.32586820  0.55380789  1
  H  H496  1  0.50118712  0.37472792  0.82341174  1
  N  N497  1  0.66308932  0.45366734  0.85882039  1
  H  H498  1  0.77404718  0.45976139  0.91187472  1
  C  C499  1  0.80829370  0.31190619  0.55832029  1
  Zn  Zn500  1  0.91532679  0.43673840  0.58863515  1
  C  C501  1  0.58943729  0.25838626  0.54958351  1
  C  C502  1  0.75469743  0.40046968  0.80136372  1
  O  O503  1  0.86564267  0.48690307  0.65659077  1
  H  H504  1  0.87215151  0.31519364  0.91795289  1
  O  O505  1  0.69601187  0.40086788  0.61404308  1
  O  O506  1  0.81772407  0.39514085  0.61072121  1
  N  N507  1  0.97553303  0.29185329  0.96358830  1
  H  H508  1  0.94222657  0.49427395  0.82236695  1
  O  O509  1  0.99119985  0.26308743  0.81795426  1
  C  C510  1  0.72202256  0.25215038  0.54223995  1
  C  C511  1  0.91320508  0.31698819  0.97252847  1
  C  C512  1  0.68379251  0.50778097  0.42769337  1
  O  O513  1  0.53302267  0.60592157  0.33184369  1
  C  C514  1  0.88556523  0.59590648  0.03481225  1
  C  C515  1  0.85761392  0.58909695  0.43942769  1
  H  H516  1  0.67993492  0.53933253  0.29634867  1
  O  O517  1  0.76807569  0.58561071  0.32828224  1
  H  H518  1  0.67474925  0.53810710  0.46362002  1
  H  H519  1  0.74378884  0.63162686  0.16072246  1
  H  H520  1  0.87643892  0.61597165  0.16658722  1
  H  H521  1  0.91752264  0.69247868  0.19032655  1
  C  C522  1  0.77728909  0.72739770  0.48615952  1
  O  O523  1  0.97874414  0.69630389  0.42186039  1
  O  O524  1  0.62979418  0.59119784  0.40937029  1
  C  C525  1  0.93606318  0.59964628  0.45869744  1
  C  C526  1  0.80041836  0.69251015  0.29755941  1
  H  H527  1  0.82721730  0.66697019  0.33152671  1
  O  O528  1  0.61768412  0.69709109  0.23416683  1
  Zn  Zn529  1  0.68039882  0.63184278  0.31961819  1
  N  N530  1  0.73104814  0.68497796  0.28277571  1
  C  C531  1  0.67932466  0.71091110  0.24746419  1
  O  O532  1  0.88175484  0.60401233  0.29769480  1
  C  C533  1  0.83489846  0.59492698  0.34924462  1
  C  C534  1  0.76884678  0.62160019  0.09786678  1
  C  C535  1  0.84431423  0.61171384  0.10463046  1
  C  C536  1  0.96533026  0.69490656  0.06435899  1
  C  C537  1  0.96246801  0.70495391  0.14968878  1
  C  C538  1  0.82156300  0.55741426  0.49429264  1
  H  H539  1  0.78327948  0.53620509  0.45912923  1
  C  C540  1  0.56023838  0.59118984  0.39655214  1
  H  H541  1  0.94396634  0.58563672  0.03685503  1
  H  H542  1  0.66805897  0.61255033  0.02429474  1
  H  H543  1  0.92745958  0.67574672  0.02435569  1
  C  C544  1  0.68618828  0.51075579  0.33532307  1
  C  C545  1  0.55266838  0.52769756  0.07586747  1
  C  C546  1  0.82921810  0.73282172  0.28353066  1
  C  C547  1  0.73007948  0.61011944  0.02669348  1
  H  H548  1  0.68960685  0.68417835  0.48017682  1
  H  H549  1  0.77689899  0.74229193  0.42503101  1
  H  H550  1  0.88739648  0.73970383  0.29686132  1
  H  H551  1  0.97386053  0.60871533  0.40310183  1
  C  C552  1  0.50759206  0.54183743  0.14437615  1
  H  H553  1  0.52393939  0.53546274  0.21213079  1
  O  O554  1  0.74336097  0.74453196  0.03192493  1
  H  H555  1  0.98014636  0.50549059  0.13040062  1
  C  C556  1  0.50738102  0.57134856  0.46264146  1
  H  H557  1  0.62543142  0.68729620  0.76506857  1
  C  C558  1  0.82033940  0.51143532  0.62793879  1
  H  H559  1  0.80732929  0.53384602  0.78398929  1
  N  N560  1  0.64927054  0.60048913  0.74259843  1
  H  H561  1  0.95768663  0.54038985  0.64584199  1
  C  C562  1  0.84873358  0.54703226  0.58350718  1
  C  C563  1  0.51445682  0.51298471  0.66711286  1
  N  N564  1  0.75166012  0.56665366  0.88432307  1
  C  C565  1  0.95734004  0.55851110  0.87635733  1
  C  C566  1  0.92699447  0.56078600  0.60100680  1
  C  C567  1  0.53508211  0.53820270  0.98616060  1
  C  C568  1  0.70787251  0.62277699  0.71774554  1
  C  C569  1  0.58470287  0.71043129  0.74399322  1
  N  N570  1  0.89090450  0.64329003  0.73297276  1
  Zn  Zn571  1  0.64967384  0.55764807  0.84814253  1
  H  H572  1  0.99948607  0.61501050  0.92694276  1
  H  H573  1  0.89659776  0.74762133  0.62625160  1
  O  O574  1  0.58359433  0.50155389  0.66709831  1
  C  C575  1  0.80197208  0.70031635  0.64499899  1
  C  C576  1  0.56969465  0.66158526  0.57762152  1
  C  C577  1  0.87664716  0.56531920  0.89148637  1
  H  H578  1  0.87887621  0.67069182  0.94344055  1
  C  C579  1  0.51613616  0.59938128  0.69759573  1
  H  H580  1  0.80589223  0.64271976  0.82107558  1
  H  H581  1  0.82005933  0.69334801  0.71023942  1
  O  O582  1  0.73610211  0.71625298  0.80429478  1
  C  C583  1  0.53931810  0.55244394  0.53145739  1
  C  C584  1  0.84603011  0.72893203  0.60415956  1
  H  H585  1  0.76136353  0.62077542  0.74859557  1
  O  O586  1  0.75224970  0.51028966  0.64685608  1
  H  H587  1  0.59348573  0.68762167  0.53913715  1
  O  O588  1  0.54546227  0.62548214  0.87381889  1
  C  C589  1  0.69410646  0.64798537  0.64367683  1
  C  C590  1  0.81257658  0.55324979  0.84512112  1
  C  C591  1  0.90690597  0.66898424  0.87889424  1
  C  C592  1  0.86526072  0.65129608  0.81181912  1
  N  N593  1  0.58326885  0.52292709  0.92475083  1
  C  C594  1  0.74359561  0.67863533  0.60373394  1
  C  C595  1  0.96440359  0.64757060  0.72442358  1
  N  N596  1  0.84947728  0.58490172  0.96546527  1
  C  C597  1  0.59258519  0.61107165  0.69133411  1
  N  N598  1  0.62016702  0.64313228  0.63050924  1
  Zn  Zn599  1  0.85646412  0.61140131  0.56530415  1
  C  C600  1  0.76899318  0.58774656  0.95693119  1
  O  O601  1  0.56068499  0.66267683  0.98801345  1
  C  C602  1  0.96507631  0.59312519  0.54780028  1
  H  H603  1  0.59837110  0.55254138  0.54185327  1
  C  C604  1  0.51618722  0.71474280  0.78149958  1
  C  C605  1  0.98099092  0.52209506  0.83507748  1
  C  C606  1  0.73519249  0.71929387  0.87921437  1
  C  C607  1  0.98538562  0.67617396  0.87185048  1
  C  C608  1  0.52150232  0.64546323  0.93125122  1
  Zn  Zn609  1  0.64379370  0.70447739  0.95906981  1
  H  H610  1  0.97843408  0.63359629  0.66274051  1
  N  N611  1  0.83493030  0.74286253  0.52525647  1
  C  C612  1  0.76503421  0.74047755  0.95821648  1
  C  C613  1  0.60529573  0.73725312  0.67582039  1
  H  H614  1  0.65907207  0.73227330  0.63927392  1
  C  C615  1  0.73402611  0.69458265  0.52064674  1
  C  C616  1  0.71101713  0.75448391  0.23009424  1
  H  H617  1  0.67564954  0.77629047  0.19115069  1
  O  O618  1  0.80206605  0.88357136  0.20719276  1
  C  C619  1  0.63984849  0.91967159  0.44089463  1
  H  H620  1  0.83909594  0.77539353  0.07143789  1
  O  O621  1  0.51402556  0.77412357  0.04236248  1
  H  H622  1  0.63116099  0.81380298  0.03614817  1
  C  C623  1  0.95374823  0.82464337  0.09245632  1
  C  C624  1  0.77866395  0.90459515  0.14437721  1
  Zn  Zn625  1  0.78278783  0.81837288  0.20850812  1
  H  H626  1  0.71420688  0.93601245  0.01864874  1
  C  C627  1  0.60150800  0.91060508  0.02603819  1
  C  C628  1  0.60429914  0.98990388  0.43020719  1
  C  C629  1  0.69651304  0.89945265  0.12952526  1
  C  C630  1  0.67387947  0.91737929  0.05390612  1
  O  O631  1  0.81611465  0.93195046  0.11358970  1
  O  O632  1  0.91616281  0.81650075  0.15710762  1
  C  C633  1  0.87036683  0.78014448  0.00774549  1
  C  C634  1  0.55389586  0.88583639  0.07538710  1
  C  C635  1  0.57838905  0.86793973  0.15149443  1
  C  C636  1  0.65117165  0.87419566  0.17824968  1
  H  H637  1  0.67488588  0.86261182  0.23769134  1
  C  C638  1  0.64815703  0.96019199  0.46748998  1
  C  C639  1  0.58210935  0.90334807  0.39084102  1
  O  O640  1  0.54580184  0.82238540  0.26705073  1
  H  H641  1  0.56958870  0.87017924  0.38634470  1
  C  C642  1  0.52713632  0.84157936  0.20530341  1
  C  C643  1  0.78364232  0.76115755  0.24974789  1
  Zn  Zn644  1  0.88051410  0.99333208  0.18147388  1
  O  O645  1  0.69257339  0.85467605  0.47570598  1
  C  C646  1  0.54903767  0.97634115  0.37048231  1
  C  C647  1  0.53240418  0.93463402  0.36288861  1
  O  O648  1  0.98899354  0.76737091  0.45973619  1
  H  H649  1  0.50948770  0.99704869  0.33602354  1
  O  O650  1  0.83499064  0.99235257  0.30802951  1
  C  C651  1  0.69767693  0.89156695  0.48415648  1
  C  C652  1  0.93508930  0.80196500  0.00404394  1
  H  H653  1  0.94516904  0.75646588  0.48254806  1
  O  O654  1  0.50777575  0.90871139  0.92657809  1
  C  C655  1  0.61253698  0.95701298  0.90140894  1
  C  C656  1  0.56483993  0.92457054  0.94760618  1
  N  N657  1  0.53138452  0.96598704  0.73118352  1
  O  O658  1  0.94965157  0.77736754  0.70107697  1
  C  C659  1  0.58395701  0.79752182  0.91754857  1
  C  C660  1  0.51318385  0.78328902  0.96103230  1
  C  C661  1  0.87652802  0.96428633  0.68666987  1
  N  N662  1  0.92115415  0.93819018  0.90397136  1
  C  C663  1  0.74947922  0.83583701  0.71564082  1
  Zn  Zn664  1  0.79871301  0.84977295  0.60039581  1
  C  C665  1  0.76991054  0.85007068  0.79805550  1
  H  H666  1  0.83447474  0.97114373  0.94006708  1
  H  H667  1  0.91856648  0.85734420  0.76922948  1
  H  H668  1  0.58916357  0.96866505  0.83788685  1
  C  C669  1  0.58866540  0.79989785  0.82694939  1
  C  C670  1  0.94266671  0.97890884  0.72391230  1
  C  C671  1  0.88013767  0.93093407  0.62814610  1
  N  N672  1  0.68330584  0.81874344  0.70998261  1
  H  H673  1  0.84581309  0.75681416  0.79800399  1
  C  C674  1  0.94098467  0.78924940  0.85621191  1
  H  H675  1  0.57206745  0.78904552  0.58553258  1
  C  C676  1  0.94618066  0.91145979  0.61888319  1
  H  H677  1  0.54096158  0.78918674  0.78513124  1
  O  O678  1  0.89496784  0.85628620  0.53408286  1
  H  H679  1  0.83477081  0.92412733  0.58427895  1
  C  C680  1  0.54529596  0.99066819  0.66724882  1
  N  N681  1  0.71269281  0.83331523  0.84509960  1
  C  C682  1  0.83754318  0.76350732  0.93388798  1
  C  C683  1  0.79601769  0.91408919  0.88355906  1
  H  H684  1  0.69577792  0.97105205  0.50820591  1
  H  H685  1  0.75140182  0.84554290  0.97073448  1
  C  C686  1  0.95229473  0.87358282  0.56272337  1
  C  C687  1  0.82300300  0.87856073  0.83849693  1
  C  C688  1  0.90177406  0.87767429  0.82157117  1
  C  C689  1  0.84872470  0.94256458  0.91131294  1
  C  C690  1  0.87188368  0.77003948  0.85570130  1
  O  O691  1  0.66654847  0.97614251  0.91638668  1
  C  C692  1  0.65708495  0.81395544  0.79165027  1
  C  C693  1  0.97776618  0.79301056  0.76994933  1
  O  O694  1  0.74889197  0.90928033  0.52408339  1
  C  C695  1  0.97089231  0.80896060  0.92776358  1
  C  C696  1  0.80345125  0.98325149  0.70339501  1
  C  C697  1  0.70505397  0.83261850  0.93267946  1
  H  H698  1  0.73624174  0.91991662  0.88948278  1
  C  C699  1  0.94830705  0.90622658  0.86219364  1
  C  C700  1  0.55846988  0.76565684  0.63565062  1
  O  O701  1  0.74267415  0.97411869  0.67898328  1
  C  C702  1  0.64152231  0.81434069  0.96703073  1
  C  C703  1  0.50024910  0.99361713  0.59451004  1
