# generated using pymatgen
data_Zn4H36C60N4O13
_symmetry_space_group_name_H-M   'P 1'
_cell_length_a   19.13335709
_cell_length_b   26.89896524
_cell_length_c   32.50228288
_cell_angle_alpha   90.00000000
_cell_angle_beta   90.00000000
_cell_angle_gamma   90.00000000
_symmetry_Int_Tables_number   1
_chemical_formula_structural   Zn4H36C60N4O13
_chemical_formula_sum   'Zn16 H144 C240 N16 O52'
_cell_volume   16727.86891039
_cell_formula_units_Z   4
loop_
 _symmetry_equiv_pos_site_id
 _symmetry_equiv_pos_as_xyz
  1  'x, y, z'
loop_
 _atom_site_type_symbol
 _atom_site_label
 _atom_site_symmetry_multiplicity
 _atom_site_fract_x
 _atom_site_fract_y
 _atom_site_fract_z
 _atom_site_occupancy
  C  C0  1  0.09945447  0.49543308  0.22215268  1
  C  C1  1  0.43037495  0.35226638  0.07804055  1
  C  C2  1  0.39789720  0.43297701  0.04207154  1
  C  C3  1  0.44749147  0.40218893  0.06695872  1
  C  C4  1  0.05514207  0.45209578  0.22450061  1
  H  H5  1  0.38015203  0.33589010  0.06750948  1
  Zn  Zn6  1  0.22787076  0.44154811  0.02647937  1
  O  O7  1  0.16380980  0.44653557  0.08557615  1
  C  C8  1  0.16360832  0.48010231  0.11286789  1
  C  C9  1  0.08762728  0.42699755  0.15706039  1
  C  C10  1  0.04892164  0.41630804  0.19223409  1
  O  O11  1  0.41163375  0.47721304  0.03096473  1
  H  H12  1  0.08861461  0.39564266  0.13485081  1
  C  C13  1  0.12712440  0.47137996  0.15284167  1
  O  O14  1  0.34275054  0.41163982  0.03211181  1
  H  H15  1  0.02720664  0.37814143  0.19936974  1
  H  H16  1  0.46511962  0.28589343  0.10936953  1
  C  C17  1  0.47890721  0.32473634  0.09882526  1
  C  C18  1  0.01975600  0.46163859  0.33645150  1
  C  C19  1  0.49420714  0.36079301  0.47560100  1
  C  C20  1  0.16585671  0.44603217  0.33853300  1
  O  O21  1  0.40308252  0.47656060  0.45219705  1
  C  C22  1  0.42266888  0.43726235  0.47173398  1
  O  O23  1  0.13186339  0.48053519  0.44413497  1
  N  N24  1  0.02371756  0.44069146  0.26326719  1
  O  O25  1  0.23057414  0.46636182  0.41351559  1
  C  C26  1  0.16428259  0.46640725  0.41238570  1
  H  H27  1  0.16182089  0.43802714  0.27260443  1
  C  C28  1  0.05806024  0.44677344  0.30025715  1
  H  H29  1  0.48463488  0.45395909  0.39985211  1
  H  H30  1  0.22379830  0.44661707  0.33988572  1
  C  C31  1  0.05236422  0.46367012  0.37427760  1
  C  C32  1  0.13260899  0.44339040  0.30081097  1
  C  C33  1  0.12578454  0.45910877  0.37369580  1
  C  C34  1  0.47411671  0.40269878  0.45156027  1
  H  H35  1  0.02265273  0.47487369  0.40070038  1
  C  C36  1  0.12566658  0.16480984  0.63705263  1
  C  C37  1  0.16181652  0.11758591  0.63466268  1
  C  C38  1  0.20032989  0.09994856  0.66832559  1
  H  H39  1  0.15384533  0.09379741  0.60760916  1
  C  C40  1  0.17622848  0.18080212  0.70338079  1
  C  C41  1  0.13728794  0.19859904  0.67071257  1
  N  N42  1  0.09230958  0.18653326  0.60294208  1
  C  C43  1  0.20339547  0.13051285  0.70464713  1
  C  C44  1  0.34455491  0.10537411  0.70081360  1
  C  C45  1  0.41448599  0.09362773  0.70188413  1
  H  H46  1  0.22173157  0.06133923  0.66818888  1
  C  C47  1  0.04151239  0.15758058  0.58411757  1
  H  H48  1  0.32368640  0.12426112  0.67335572  1
  H  H49  1  0.45091989  0.10347009  0.67642317  1
  C  C50  1  0.01942503  0.17246778  0.54297326  1
  C  C51  1  0.43971283  0.06783662  0.73782222  1
  C  C52  1  0.30507547  0.09753019  0.73878678  1
  H  H53  1  0.03914556  0.10816818  0.63607926  1
  H  H54  1  0.17302009  0.20477638  0.73108405  1
  N  N55  1  0.23854779  0.11595194  0.74070471  1
  H  H56  1  0.04396343  0.20437503  0.52727740  1
  C  C57  1  0.02290561  0.11204187  0.60362250  1
  C  C58  1  0.11453740  0.23458962  0.59222565  1
  H  H59  1  0.11128744  0.23544220  0.67094484  1
  H  H60  1  0.22322379  0.21700898  0.61058930  1
  C  C61  1  0.18894025  0.24571166  0.59529560  1
  H  H62  1  0.43956600  0.01738886  0.66878228  1
  C  C63  1  0.49684559  0.01820931  0.66672333  1
  H  H64  1  0.01031235  0.25689692  0.57041124  1
  H  H65  1  0.44344587  0.45974420  0.73348515  1
  C  C66  1  0.06630089  0.26736113  0.57305954  1
  O  O67  1  0.26047243  0.49993865  0.50713873  1
  C  C68  1  0.43474450  0.49101848  0.71150551  1
  C  C69  1  0.08529918  0.31375784  0.55763726  1
  C  C70  1  0.15596661  0.32349625  0.56115619  1
  H  H71  1  0.37329184  0.44752620  0.66918366  1
  C  C72  1  0.20843098  0.29045605  0.57762012  1
  H  H73  1  0.04682769  0.33950130  0.54531406  1
  H  H74  1  0.48290802  0.35740974  0.50880445  1
  Zn  Zn75  1  0.15764304  0.47759794  0.50945226  1
  O  O76  1  0.31766481  0.47308878  0.60763336  1
  O  O77  1  0.40021802  0.42780937  0.50592706  1
  O  O78  1  0.24612768  0.38232660  0.55445083  1
  O  O79  1  0.14216877  0.40364145  0.53035308  1
  Zn  Zn80  1  0.30807161  0.45048760  0.54099414  1
  H  H81  1  0.26342321  0.30402578  0.57999194  1
  C  C82  1  0.18271997  0.37420081  0.54725999  1
  C  C83  1  0.39789302  0.48306446  0.67605115  1
  C  C84  1  0.10183685  0.15204619  0.81682929  1
  C  C85  1  0.14790644  0.17498801  0.84659985  1
  C  C86  1  0.25100138  0.15238977  0.80900456  1
  C  C87  1  0.22117135  0.17801957  0.84213594  1
  N  N88  1  0.11068191  0.19622200  0.88119944  1
  C  C89  1  0.20910464  0.12907977  0.77939550  1
  H  H90  1  0.09825333  0.09822326  0.87761656  1
  H  H91  1  0.04623425  0.14838499  0.82506866  1
  C  C92  1  0.05378765  0.11669103  0.89204841  1
  H  H93  1  0.29084353  0.06400041  0.80023947  1
  H  H94  1  0.30823579  0.15272344  0.80690804  1
  C  C95  1  0.05663186  0.16997700  0.89817085  1
  C  C96  1  0.32932996  0.07285105  0.77533114  1
  C  C97  1  0.39831719  0.05797230  0.77418777  1
  H  H98  1  0.10396227  0.22570150  0.96416528  1
  C  C99  1  0.13335205  0.12937325  0.78362938  1
  H  H100  1  0.42176508  0.03577057  0.79880309  1
  H  H101  1  0.25470414  0.19526156  0.86654060  1
  C  C102  1  0.13697038  0.24065633  0.89849743  1
  C  C103  1  0.00133035  0.19490989  0.92003243  1
  H  H104  1  0.10405955  0.11659449  0.75729124  1
  H  H105  1  0.49286140  0.10962349  0.79792083  1
  C  C106  1  0.18880618  0.38507811  0.94763983  1
  O  O107  1  0.18503470  0.38700856  0.98683433  1
  C  C108  1  0.15120666  0.29723092  0.95617467  1
  C  C109  1  0.12925831  0.25179533  0.94250302  1
  C  C110  1  0.17206103  0.33622578  0.92875238  1
  H  H111  1  0.14356828  0.30607086  0.99020629  1
  H  H112  1  0.19078132  0.35937822  0.86745851  1
  O  O113  1  0.20426698  0.42312776  0.92652015  1
  H  H114  1  0.16519958  0.27272384  0.83916246  1
  C  C115  1  0.17689376  0.32669322  0.88709684  1
  C  C116  1  0.16144170  0.27855463  0.87185531  1
  C  C117  1  0.34435370  0.68208346  0.05084274  1
  C  C118  1  0.41193885  0.69804638  0.04123052  1
  C  C119  1  0.32161990  0.63467765  0.03365647  1
  C  C120  1  0.30011818  0.70945383  0.07841462  1
  H  H121  1  0.24905397  0.69473855  0.08830936  1
  O  O122  1  0.25831506  0.62131290  0.04320452  1
  Zn  Zn123  1  0.19942851  0.55646402  0.04598475  1
  O  O124  1  0.35886973  0.60725896  0.01369486  1
  H  H125  1  0.44360026  0.67578170  0.02088969  1
  O  O126  1  0.09707661  0.57534962  0.02106309  1
  H  H127  1  0.15241854  0.54483787  0.17907860  1
  C  C128  1  0.12544743  0.50863374  0.18437990  1
  O  O129  1  0.19348687  0.52034444  0.10615136  1
  H  H130  1  0.03307216  0.65426822  0.01495998  1
  O  O131  1  0.24273444  0.50690240  0.00466971  1
  H  H132  1  0.10589099  0.52225072  0.24929184  1
  C  C133  1  0.43723988  0.74228228  0.05773125  1
  C  C134  1  0.00636561  0.96640423  0.16100130  1
  H  H135  1  0.49059834  0.75579458  0.05337100  1
  C  C136  1  0.14896387  0.86825270  0.20471222  1
  C  C137  1  0.32133321  0.75552699  0.09339427  1
  C  C138  1  0.29453151  0.84810970  0.21263413  1
  H  H139  1  0.39691301  0.75549507  0.16818596  1
  C  C140  1  0.39145410  0.76995217  0.08415346  1
  H  H141  1  0.28500232  0.78036936  0.10988977  1
  H  H142  1  0.33828274  0.77813340  0.23466046  1
  C  C143  1  0.45419801  0.84939982  0.08320080  1
  N  N144  1  0.25098455  0.85304152  0.24761460  1
  C  C145  1  0.29866428  0.88256212  0.17991041  1
  H  H146  1  0.05493760  0.87755446  0.17242890  1
  C  C147  1  0.05907956  0.91556792  0.23552228  1
  H  H148  1  0.43583842  0.82485276  0.02181273  1
  H  H149  1  0.06185389  0.97587140  0.16411899  1
  H  H150  1  0.17225659  0.84532542  0.17934605  1
  H  H151  1  0.34164524  0.89991474  0.12036793  1
  H  H152  1  0.47731278  0.88657523  0.14191853  1
  C  C153  1  0.33866808  0.87192885  0.14459968  1
  C  C154  1  0.46887522  0.85059603  0.03918713  1
  H  H155  1  0.27256201  0.91903161  0.18295955  1
  N  N156  1  0.41303896  0.81475082  0.10324183  1
  C  C157  1  0.33236866  0.80101362  0.20764582  1
  C  C158  1  0.18796379  0.87546112  0.24286297  1
  C  C159  1  0.08472426  0.88919687  0.20005449  1
  C  C160  1  0.48736160  0.88542758  0.10916905  1
  C  C161  1  0.36839602  0.79071151  0.17130837  1
  C  C162  1  0.37519606  0.82739467  0.13928191  1
  H  H163  1  0.00066028  0.99514000  0.09883663  1
  C  C164  1  0.33497043  0.66880872  0.44139709  1
  C  C165  1  0.32727075  0.67349776  0.39795442  1
  H  H166  1  0.30287238  0.64147420  0.38430366  1
  C  C167  1  0.30374678  0.62276720  0.46113948  1
  O  O168  1  0.28382441  0.58820241  0.43867320  1
  C  C169  1  0.36475826  0.70556870  0.46810275  1
  C  C170  1  0.34477095  0.71905558  0.38165569  1
  H  H171  1  0.33000489  0.72708587  0.34950752  1
  C  C172  1  0.38959173  0.74824898  0.44963381  1
  Zn  Zn173  1  0.30210310  0.50902498  0.45331490  1
  O  O174  1  0.30166018  0.62056939  0.49892911  1
  C  C175  1  0.37991508  0.75524121  0.40598310  1
  C  C176  1  0.45425877  0.82813350  0.40402808  1
  H  H177  1  0.07197297  0.93939486  0.30135807  1
  C  C178  1  0.25037820  0.82170946  0.31873822  1
  C  C179  1  0.39513434  0.84185182  0.32281228  1
  H  H180  1  0.25647810  0.78645455  0.37946129  1
  C  C181  1  0.09399949  0.91840550  0.27454528  1
  H  H182  1  0.45053814  0.84731828  0.32518478  1
  H  H183  1  0.38451125  0.86774804  0.25813239  1
  N  N184  1  0.39656698  0.80161495  0.38858664  1
  C  C185  1  0.45831871  0.88124077  0.39648191  1
  C  C186  1  0.15767097  0.89641798  0.27975285  1
  H  H187  1  0.41392909  0.89707429  0.38116436  1
  C  C188  1  0.36009036  0.85066640  0.28555631  1
  H  H189  1  0.18574489  0.90042946  0.31114571  1
  C  C190  1  0.35657511  0.82003047  0.35606624  1
  C  C191  1  0.28765029  0.84365162  0.28511156  1
  H  H192  1  0.19461191  0.81367270  0.31406653  1
  C  C193  1  0.28317753  0.80643867  0.35434604  1
  H  H194  1  0.40544783  0.78011701  0.46690102  1
  H  H195  1  0.40362657  0.60403239  0.63329991  1
  C  C196  1  0.41087391  0.57443309  0.65721586  1
  C  C197  1  0.04543804  0.64858737  0.55786592  1
  C  C198  1  0.09834069  0.56675630  0.55058895  1
  Zn  Zn199  1  0.25797702  0.56095210  0.54233939  1
  O  O200  1  0.32089671  0.55515198  0.59466760  1
  C  C201  1  0.33691998  0.51698598  0.61470996  1
  H  H202  1  0.08491295  0.66558121  0.53895673  1
  O  O203  1  0.15193274  0.58683218  0.53414773  1
  C  C204  1  0.03952570  0.59671962  0.56735629  1
  C  C205  1  0.45174123  0.57978761  0.69236698  1
  C  C206  1  0.45666134  0.54037887  0.72070556  1
  O  O207  1  0.09859977  0.52042067  0.55663733  1
  C  C208  1  0.38575560  0.52555570  0.65035864  1
  H  H209  1  0.47796765  0.61324136  0.69984166  1
  H  H210  1  0.37015487  0.69853432  0.50199754  1
  C  C211  1  0.45524315  0.54025043  0.79572565  1
  C  C212  1  0.38028435  0.54451280  0.79123797  1
  H  H213  1  0.35716927  0.54710233  0.76087337  1
  C  C214  1  0.37831931  0.52741555  0.86339213  1
  C  C215  1  0.03651006  0.60170690  0.96230814  1
  C  C216  1  0.33941235  0.53678228  0.82593825  1
  C  C217  1  0.08049328  0.56527656  0.98370063  1
  H  H218  1  0.28509429  0.52962256  0.82186347  1
  C  C219  1  0.45202647  0.51953090  0.86903315  1
  O  O220  1  0.27132137  0.52719576  0.90437671  1
  H  H221  1  0.02733461  0.55489004  0.90911870  1
  O  O222  1  0.09898641  0.52502789  0.96715321  1
  C  C223  1  0.33758924  0.52179601  0.90221226  1
  N  N224  1  0.48953679  0.55012920  0.75955829  1
  H  H225  1  0.46875077  0.50727451  0.89924342  1
  O  O226  1  0.37026229  0.51396077  0.93448050  1
  C  C227  1  0.01354589  0.58993676  0.92308467  1
  C  C228  1  0.01365218  0.64548006  0.98349617  1
  Zn  Zn229  1  0.20347153  0.50199676  0.95006618  1
  C  C230  1  0.48993556  0.52757656  0.83392014  1
  Zn  Zn231  1  0.34432014  0.52737911  0.99746743  1
  C  C232  1  0.65242066  0.18457964  0.06568601  1
  C  C233  1  0.67460951  0.19128153  0.10738442  1
  H  H234  1  0.71095066  0.16227622  0.12094681  1
  C  C235  1  0.67016958  0.13594473  0.04573985  1
  O  O236  1  0.70523309  0.10351732  0.06495423  1
  C  C237  1  0.60688927  0.21572409  0.04398903  1
  C  C238  1  0.65329227  0.23372259  0.12804089  1
  H  H239  1  0.67601436  0.24302950  0.15862776  1
  Zn  Zn240  1  0.71099256  0.01924831  0.05593081  1
  H  H241  1  0.58756017  0.20650583  0.01424111  1
  O  O242  1  0.65245305  0.12840863  0.00915305  1
  H  H243  1  0.51844365  0.46217273  0.07037194  1
  H  H244  1  0.74897197  0.30659663  0.12392061  1
  H  H245  1  0.62684929  0.38391577  0.24906630  1
  C  C246  1  0.72428379  0.35465111  0.22086518  1
  C  C247  1  0.72329127  0.32019994  0.15121073  1
  C  C248  1  0.58455064  0.25997196  0.06441809  1
  H  H249  1  0.55402826  0.28847996  0.04820169  1
  C  C250  1  0.60983163  0.26909204  0.10429274  1
  N  N251  1  0.60004764  0.31528730  0.12365695  1
  C  C252  1  0.84712409  0.41137422  0.22532171  1
  C  C253  1  0.64723636  0.32813261  0.15488516  1
  H  H254  1  0.61123597  0.41328666  0.11158089  1
  C  C255  1  0.91461526  0.42937763  0.22802491  1
  C  C256  1  0.56042434  0.39733640  0.10059081  1
  H  H257  1  0.81644335  0.32245312  0.18854101  1
  H  H258  1  0.93308262  0.45903818  0.20598477  1
  C  C259  1  0.65053127  0.36500770  0.22203609  1
  C  C260  1  0.54701222  0.34607382  0.10955394  1
  C  C261  1  0.75974255  0.33178967  0.18605767  1
  H  H262  1  0.81379914  0.42175874  0.19995997  1
  H  H263  1  0.55765864  0.36327046  0.18612585  1
  C  C264  1  0.61483268  0.35460772  0.18700192  1
  C  C265  1  0.51122800  0.42337401  0.07993698  1
  C  C266  1  0.63082353  0.15547101  0.43513167  1
  C  C267  1  0.56825678  0.17789828  0.44481037  1
  C  C268  1  0.65238194  0.10619379  0.45306628  1
  Zn  Zn269  1  0.80029246  0.04271992  0.45104757  1
  H  H270  1  0.72687404  0.15909720  0.40113620  1
  C  C271  1  0.68048894  0.18021385  0.40993906  1
  O  O272  1  0.71024134  0.09066374  0.43983162  1
  O  O273  1  0.61474548  0.07946112  0.47591468  1
  H  H274  1  0.84296922  0.02974894  0.32166473  1
  H  H275  1  0.53047055  0.16086714  0.46577637  1
  O  O276  1  0.88425237  0.07494709  0.48478643  1
  Zn  Zn277  1  0.65135670  0.00833544  0.49274941  1
  C  C278  1  0.55679536  0.22724563  0.43452863  1
  C  C279  1  0.67048381  0.22852127  0.39759273  1
  H  H280  1  0.91370844  0.01955922  0.25596391  1
  H  H281  1  0.95006253  0.14733511  0.49310048  1
  O  O282  1  0.81637229  0.00782139  0.38839471  1
  H  H283  1  0.50642209  0.24459941  0.44221132  1
  H  H284  1  0.96272234  0.46932864  0.33307337  1
  C  C285  1  0.67999813  0.36047123  0.36281160  1
  N  N286  1  0.60175684  0.30224411  0.39605657  1
  C  C287  1  0.53996323  0.32819868  0.45660208  1
  C  C288  1  0.93535512  0.38400035  0.29409928  1
  H  H289  1  0.84691784  0.34712289  0.32122203  1
  H  H290  1  0.75366547  0.40755456  0.32819260  1
  C  C291  1  0.54826303  0.38642420  0.39405853  1
  C  C292  1  0.86624743  0.36918284  0.29547317  1
  C  C293  1  0.68821696  0.29701109  0.29247418  1
  C  C294  1  0.82476513  0.38065172  0.25878395  1
  C  C295  1  0.60646090  0.25270307  0.40868831  1
  H  H296  1  0.60974238  0.25032799  0.32154095  1
  H  H297  1  0.56986892  0.39485634  0.36321356  1
  C  C298  1  0.72448629  0.34292898  0.29468996  1
  H  H299  1  0.70761860  0.25352238  0.38200794  1
  H  H300  1  0.68615815  0.27473138  0.26494709  1
  N  N301  1  0.75983135  0.35833051  0.25839589  1
  H  H302  1  0.56101207  0.29596344  0.47019348  1
  C  C303  1  0.64560001  0.28319103  0.32538682  1
  C  C304  1  0.56210672  0.33889693  0.41522322  1
  C  C305  1  0.64295810  0.31493488  0.36091068  1
  C  C306  1  0.95884305  0.41669577  0.26215550  1
  H  H307  1  0.97239875  0.37416391  0.31951130  1
  H  H308  1  0.67269927  0.37962058  0.39117563  1
  C  C309  1  0.72457732  0.37441701  0.33047067  1
  C  C310  1  0.50066043  0.41710167  0.41225151  1
  C  C311  1  0.53970487  0.03289590  0.70058416  1
  H  H312  1  0.95634707  0.04820091  0.59946506  1
  C  C313  1  0.61584157  0.03444993  0.69875259  1
  C  C314  1  0.64957796  0.02428635  0.66209973  1
  C  C315  1  0.95024950  0.09729154  0.54470724  1
  C  C316  1  0.89882256  0.06813479  0.52292314  1
  H  H317  1  0.64761354  0.04268287  0.72571402  1
  C  C318  1  0.60319639  0.00890051  0.63136881  1
  H  H319  1  0.70691288  0.03315479  0.65657460  1
  C  C320  1  0.63941423  0.00653453  0.59111248  1
  C  C321  1  0.52966598  0.00296743  0.63131045  1
  C  C322  1  0.97304152  0.14095445  0.52382721  1
  N  N323  1  0.50707728  0.04929655  0.73693859  1
  O  O324  1  0.70494630  0.00635390  0.59164978  1
  O  O325  1  0.88033336  0.03302314  0.54434469  1
  C  C326  1  0.97191121  0.08336305  0.58443047  1
  H  H327  1  0.90433168  0.18503379  0.95519077  1
  C  C328  1  0.56551686  0.07778413  0.84298342  1
  C  C329  1  0.88138445  0.08919044  0.94268896  1
  C  C330  1  0.94458522  0.11489346  0.92805630  1
  H  H331  1  0.55683086  0.10729475  0.86686504  1
  Zn  Zn332  1  0.72428725  0.08330800  0.96680579  1
  C  C333  1  0.61472289  0.03944901  0.85052994  1
  O  O334  1  0.65496597  0.07364266  0.91453876  1
  O  O335  1  0.83010657  0.11099542  0.95682803  1
  C  C336  1  0.94786010  0.16665037  0.93620654  1
  C  C337  1  0.53028184  0.07905463  0.80574004  1
  O  O338  1  0.88552297  0.04216727  0.94167026  1
  C  C339  1  0.65018821  0.03635217  0.89092837  1
  C  C340  1  0.54421765  0.04244080  0.77444712  1
  O  O341  1  0.74279690  0.01923018  0.99428336  1
  C  C342  1  0.59292417  0.00436796  0.78250594  1
  H  H343  1  0.99937187  0.23505724  0.92037883  1
  C  C344  1  0.99636986  0.09024882  0.90468883  1
  C  C345  1  0.62699529  0.00245414  0.82032651  1
  H  H346  1  0.99138028  0.04921765  0.89963217  1
  C  C347  1  0.53212041  0.91914768  0.09176578  1
  O  O348  1  0.79651060  0.98607568  0.08297690  1
  C  C349  1  0.90023047  0.97667899  0.12350689  1
  H  H350  1  0.79842919  0.96207925  0.15393448  1
  H  H351  1  0.56027889  0.94774045  0.10968658  1
  C  C352  1  0.85668834  0.96173376  0.15712575  1
  C  C353  1  0.89158167  0.94332941  0.19123217  1
  C  C354  1  0.58507834  0.96014127  0.02992333  1
  C  C355  1  0.54353831  0.91893296  0.04907951  1
  C  C356  1  0.86343291  0.98742385  0.08536507  1
  H  H357  1  0.86201148  0.92957119  0.21831542  1
  C  C358  1  0.97550256  0.97785971  0.12405025  1
  C  C359  1  0.96549643  0.94399390  0.19433900  1
  N  N360  1  0.99265444  0.93716194  0.23409775  1
  O  O361  1  0.60572958  0.99580312  0.05315912  1
  C  C362  1  0.51161948  0.88527901  0.01981216  1
  O  O363  1  0.89604980  0.99603857  0.05268111  1
  H  H364  1  0.50985780  0.76376693  0.43222574  1
  C  C365  1  0.62550476  0.91861710  0.44147619  1
  O  O366  1  0.74896933  0.99546111  0.48917478  1
  H  H367  1  0.60994984  0.82480523  0.45421320  1
  H  H368  1  0.91484623  0.88151730  0.35950631  1
  Zn  Zn369  1  0.77840817  0.93255424  0.46295618  1
  C  C370  1  0.95515028  0.94586619  0.27060224  1
  C  C371  1  0.56721924  0.88564629  0.42951177  1
  C  C372  1  0.88461573  0.95790631  0.34449917  1
  O  O373  1  0.84916178  0.93485171  0.41160854  1
  C  C374  1  0.56477949  0.83340814  0.43604951  1
  O  O375  1  0.67596865  0.89965956  0.46127604  1
  C  C376  1  0.96064141  0.90863517  0.30215500  1
  C  C377  1  0.92235861  0.91343595  0.33895558  1
  O  O378  1  0.62000493  0.96388466  0.43557151  1
  C  C379  1  0.84880746  0.96788441  0.38485098  1
  C  C380  1  0.91656726  0.99118291  0.27948879  1
  H  H381  1  0.99281432  0.87645458  0.29565655  1
  C  C382  1  0.87562824  0.99588999  0.31475671  1
  C  C383  1  0.51012629  0.80351187  0.42446015  1
  C  C384  1  0.51011552  0.90984583  0.41105154  1
  H  H385  1  0.50812286  0.95047214  0.40840745  1
  C  C386  1  0.78501813  0.68104823  0.65522834  1
  C  C387  1  0.85885144  0.67506189  0.65383585  1
  H  H388  1  0.70005117  0.58178084  0.70149742  1
  C  C389  1  0.79097135  0.64563163  0.72545590  1
  C  C390  1  0.90150359  0.65695244  0.68903020  1
  C  C391  1  0.75374846  0.66393751  0.69138659  1
  H  H392  1  0.89387813  0.59727319  0.62554166  1
  C  C393  1  0.66548897  0.58917977  0.72750426  1
  H  H394  1  0.69634392  0.66933483  0.69759671  1
  N  N395  1  0.89091493  0.69141473  0.61746342  1
  C  C396  1  0.93725971  0.60964460  0.60544222  1
  C  C397  1  0.86641519  0.64468157  0.72367080  1
  H  H398  1  0.95669587  0.65341419  0.68710626  1
  C  C399  1  0.93807233  0.66177934  0.59602486  1
  C  C400  1  0.59867298  0.57105885  0.72589333  1
  H  H401  1  0.57663482  0.55547573  0.69690191  1
  H  H402  1  0.75638929  0.69210398  0.62738725  1
  H  H403  1  0.87471460  0.71149575  0.53298098  1
  C  C404  1  0.86835143  0.73647466  0.59914937  1
  C  C405  1  0.86937547  0.74511126  0.55503357  1
  H  H406  1  0.98086287  0.53419192  0.59968887  1
  C  C407  1  0.98567882  0.57535862  0.59097332  1
  H  H408  1  0.99873601  0.72061654  0.56130878  1
  C  C409  1  0.99199144  0.68077951  0.56870603  1
  H  H410  1  0.50243975  0.99460411  0.60119069  1
  H  H411  1  0.85741293  0.80029532  0.50838799  1
  H  H412  1  0.82383205  0.85174125  0.63415776  1
  C  C413  1  0.84601740  0.83116969  0.57026854  1
  O  O414  1  0.83795085  0.88147324  0.51233435  1
  C  C415  1  0.83728231  0.82360417  0.61218907  1
  C  C416  1  0.85895062  0.79136374  0.54192431  1
  C  C417  1  0.83140327  0.88094775  0.54998330  1
  H  H418  1  0.84900664  0.76287068  0.65830777  1
  O  O419  1  0.82270020  0.91828210  0.57181098  1
  Zn  Zn420  1  0.77903963  0.98731259  0.54589821  1
  C  C421  1  0.85078719  0.77631619  0.62699854  1
  O  O422  1  0.60495442  0.99775990  0.55841321  1
  H  H423  1  0.65638536  0.64473790  0.82624519  1
  C  C424  1  0.81586125  0.69883908  0.80030116  1
  C  C425  1  0.86326650  0.67440383  0.86718877  1
  C  C426  1  0.83760397  0.62431177  0.86507827  1
  C  C427  1  0.79846569  0.61176621  0.83115042  1
  N  N428  1  0.89614707  0.69604433  0.90092768  1
  H  H429  1  0.85776680  0.59828474  0.88987802  1
  H  H430  1  0.78110107  0.57373770  0.82703299  1
  C  C431  1  0.64358427  0.61938073  0.79985435  1
  C  C432  1  0.58344054  0.59241490  0.79979187  1
  C  C433  1  0.78779547  0.64811603  0.79974576  1
  C  C434  1  0.85445900  0.70959039  0.83429618  1
  C  C435  1  0.94417587  0.66693011  0.92285257  1
  H  H436  1  0.55005426  0.59474113  0.82812117  1
  C  C437  1  0.55683370  0.56878670  0.76219424  1
  C  C438  1  0.96756650  0.67831561  0.96420138  1
  C  C439  1  0.68969603  0.61351699  0.76460475  1
  C  C440  1  0.97327049  0.62525715  0.90236476  1
  H  H441  1  0.96000056  0.61671249  0.87126960  1
  N  N442  1  0.75514103  0.63473364  0.76341000  1
  H  H443  1  0.80678765  0.72402683  0.77562659  1
  H  H444  1  0.95194234  0.71133625  0.98017753  1
  H  H445  1  0.54303544  0.51568681  0.83242893  1
  H  H446  1  0.87837133  0.74661266  0.83616788  1
  H  H447  1  0.76485289  0.74130682  0.89267708  1
  C  C448  1  0.87466116  0.74298875  0.91618025  1
  H  H449  1  0.89306426  0.63252089  0.75291255  1
  H  H450  1  0.60774353  0.97722295  0.75836413  1
  C  C451  1  0.81623471  0.88823989  0.96439465  1
  C  C452  1  0.83428910  0.83696191  0.94937780  1
  C  C453  1  0.78629183  0.80618988  0.92740059  1
  Zn  Zn454  1  0.83844430  0.99561879  0.98815986  1
  C  C455  1  0.80308656  0.75994560  0.91186589  1
  C  C456  1  0.92257049  0.77343728  0.93751941  1
  C  C457  1  0.90295738  0.81892475  0.95292557  1
  H  H458  1  0.51609326  0.89509352  0.98800223  1
  O  O459  1  0.75354082  0.89982574  0.96128955  1
  O  O460  1  0.59931436  0.95772628  0.99265921  1
  O  O461  1  0.85562563  0.91702409  0.98511951  1
  Zn  Zn462  1  0.69643040  0.97257173  0.95803199  1
  H  H463  1  0.94268492  0.84142507  0.96973145  1
  H  H464  1  0.73561577  0.82275588  0.92004908  1
  H  H465  1  0.66263722  0.97145535  0.82482628  1
  H  H466  1  0.97706587  0.76114496  0.94008703  1
  O  O467  1  0.68781893  0.99807164  0.89661171  1
