# generated using pymatgen
data_ZnH6C7O4
_symmetry_space_group_name_H-M   'P 1'
_cell_length_a   15.37850055
_cell_length_b   13.52408891
_cell_length_c   14.56640017
_cell_angle_alpha   90.00000000
_cell_angle_beta   90.00000000
_cell_angle_gamma   90.00000000
_symmetry_Int_Tables_number   1
_chemical_formula_structural   ZnH6C7O4
_chemical_formula_sum   'Zn16 H96 C112 O64'
_cell_volume   3029.52294978
_cell_formula_units_Z   16
loop_
 _symmetry_equiv_pos_site_id
 _symmetry_equiv_pos_as_xyz
  1  'x, y, z'
loop_
 _atom_site_type_symbol
 _atom_site_label
 _atom_site_symmetry_multiplicity
 _atom_site_fract_x
 _atom_site_fract_y
 _atom_site_fract_z
 _atom_site_occupancy
  O  O0  1  0.06397414  0.20156997  0.08869083  1
  H  H1  1  0.07540959  0.03061927  0.38131318  1
  C  C2  1  0.14408731  0.19699064  0.27520834  1
  C  C3  1  0.14860862  0.04290952  0.37532873  1
  O  O4  1  0.18163221  0.31886026  0.44827051  1
  H  H5  1  0.15339503  0.28122319  0.27216426  1
  C  C6  1  0.14775412  0.03548518  0.19099232  1
  O  O7  1  0.19882494  0.19849619  0.04050964  1
  C  C8  1  0.15745779  0.22796906  0.45798440  1
  C  C9  1  0.17744682  0.15362906  0.36752227  1
  H  H10  1  0.11839859  0.45726509  0.28577377  1
  C  C11  1  0.17432438  0.14471530  0.19320290  1
  C  C12  1  0.14428026  0.18462629  0.10299824  1
  Zn  Zn13  1  0.03969877  0.22109990  0.37456509  1
  C  C14  1  0.19419848  0.48922287  0.16806015  1
  H  H15  1  0.07434472  0.03016874  0.18262667  1
  C  C16  1  0.13749101  0.44841647  0.09963044  1
  H  H17  1  0.24359611  0.34743170  0.22890406  1
  O  O18  1  0.06329058  0.46953152  0.09344124  1
  H  H19  1  0.17856055  0.00202032  0.12771073  1
  H  H20  1  0.18396310  0.00977448  0.43446618  1
  O  O21  1  0.18666002  0.41281845  0.00919359  1
  H  H22  1  0.23182339  0.36902541  0.03815809  1
  C  C23  1  0.04660494  0.44957857  0.76228645  1
  Zn  Zn24  1  0.21359190  0.28678418  0.90674878  1
  O  O25  1  0.18768784  0.41634935  0.80478643  1
  O  O26  1  0.12613276  0.19819276  0.82716402  1
  C  C27  1  0.14352287  0.12348295  0.78153136  1
  H  H28  1  0.04609382  0.32152366  0.85168151  1
  O  O29  1  0.17491831  0.49993344  0.67658578  1
  C  C30  1  0.14261350  0.46052345  0.74926264  1
  H  H31  1  0.11842290  0.00698278  0.92635865  1
  O  O32  1  0.21581752  0.11485004  0.74103033  1
  H  H33  1  0.02630000  0.42631283  0.61780198  1
  H  H34  1  0.04716160  0.32024507  0.68653526  1
  Zn  Zn35  1  0.22236874  0.42743501  0.54474686  1
  C  C36  1  0.08306353  0.03434510  0.78327478  1
  C  C37  1  0.01852869  0.39737540  0.85534678  1
  H  H38  1  0.04710895  0.43836022  0.91362169  1
  O  O39  1  0.14187023  0.19411547  0.54138316  1
  C  C40  1  0.01143307  0.38942585  0.68302209  1
  H  H41  1  0.07350827  0.02510040  0.63475183  1
  Zn  Zn42  1  0.01803892  0.84596209  0.15686226  1
  H  H43  1  0.18691419  0.63811313  0.10218992  1
  O  O44  1  0.09657970  0.60470521  0.41449331  1
  Zn  Zn45  1  0.04268510  0.75863842  0.41006450  1
  O  O46  1  0.15581816  0.83156816  0.36306271  1
  O  O47  1  0.21455425  0.57453328  0.49295038  1
  H  H48  1  0.09885856  0.58093972  0.24435537  1
  O  O49  1  0.13623348  0.83137312  0.21805268  1
  C  C50  1  0.15220426  0.87471825  0.29138243  1
  C  C51  1  0.17455678  0.58026693  0.41835403  1
  C  C52  1  0.15141324  0.52352222  0.25502394  1
  H  H53  1  0.22163737  0.72353204  0.26914025  1
  C  C54  1  0.22281465  0.56599259  0.32510062  1
  C  C55  1  0.17741643  0.98691410  0.28517170  1
  O  O56  1  0.01404661  0.80530576  0.01296662  1
  C  C57  1  0.23982682  0.58366093  0.12466800  1
  C  C58  1  0.07074557  0.81850847  0.95497168  1
  H  H59  1  0.02573784  0.59731028  0.82404767  1
  H  H60  1  0.15968151  0.95476595  0.68475425  1
  H  H61  1  0.17591059  0.93479583  0.85123457  1
  H  H62  1  0.11661465  0.78563704  0.78284606  1
  C  C63  1  0.04935570  0.81801771  0.78729946  1
  C  C64  1  0.04092589  0.88171180  0.87421052  1
  O  O65  1  0.02453085  0.86325129  0.53231804  1
  C  C66  1  0.04010026  0.81972252  0.60517993  1
  C  C67  1  0.08936342  0.97847462  0.69487583  1
  O  O68  1  0.06460703  0.73084233  0.60158610  1
  C  C69  1  0.03043425  0.88302582  0.69895724  1
  C  C70  1  0.11252325  0.96758240  0.86173769  1
  Zn  Zn71  1  0.18053215  0.66358039  0.62617898  1
  H  H72  1  0.02764586  0.58783779  0.69831387  1
  O  O73  1  0.14437101  0.77895804  0.94827081  1
  H  H74  1  0.00065893  0.75441705  0.78684516  1
  C  C75  1  0.00577708  0.55170169  0.76300831  1
  H  H76  1  0.29916028  0.38773537  0.12348243  1
  H  H77  1  0.30975933  0.22548600  0.36286501  1
  C  C78  1  0.40882407  0.37761164  0.27159086  1
  C  C79  1  0.40810140  0.08370957  0.27543914  1
  H  H80  1  0.31053917  0.11507821  0.42504779  1
  O  O81  1  0.44582398  0.08610004  0.35240823  1
  C  C82  1  0.27731478  0.14020772  0.18648984  1
  C  C83  1  0.31167610  0.08968225  0.27546084  1
  O  O84  1  0.44245869  0.05533604  0.20123100  1
  H  H85  1  0.29780478  0.09663430  0.12476518  1
  H  H86  1  0.31087669  0.21197372  0.18273307  1
  O  O87  1  0.39682682  0.30019243  0.30823409  1
  O  O88  1  0.41610840  0.41022669  0.01639017  1
  C  C89  1  0.34077301  0.45790700  0.25444112  1
  Zn  Zn90  1  0.46485934  0.16751361  0.48341525  1
  C  C91  1  0.27927909  0.14643370  0.36241155  1
  C  C92  1  0.26787221  0.41514667  0.18874159  1
  H  H93  1  0.25880800  0.42174124  0.37203300  1
  C  C94  1  0.29227407  0.48612638  0.34576902  1
  O  O95  1  0.44765152  0.30265786  0.55831385  1
  C  C96  1  0.42050561  0.42370497  0.85774072  1
  C  C97  1  0.38680959  0.35607183  0.77791960  1
  O  O98  1  0.36210597  0.08521123  0.54866114  1
  H  H99  1  0.40170026  0.27720249  0.78784457  1
  C  C100  1  0.41737605  0.40104541  0.68329992  1
  H  H101  1  0.45384441  0.15714711  0.68609918  1
  C  C102  1  0.39143729  0.33638867  0.60934986  1
  H  H103  1  0.31338242  0.35023102  0.78084646  1
  O  O104  1  0.35300329  0.29204292  0.94028574  1
  H  H105  1  0.43500633  0.14355659  0.85125115  1
  H  H106  1  0.33057684  0.03707728  0.76450190  1
  C  C107  1  0.39641381  0.37050044  0.94240284  1
  O  O108  1  0.31029379  0.32059658  0.60142192  1
  C  C109  1  0.48305941  0.07853145  0.85145384  1
  Zn  Zn110  1  0.25522790  0.15387722  0.60879219  1
  C  C111  1  0.49464206  0.09233186  0.67877042  1
  H  H112  1  0.29187730  0.49264796  0.68066115  1
  C  C113  1  0.30775132  0.63252605  0.18878649  1
  Zn  Zn114  1  0.43010869  0.91961638  0.12734251  1
  C  C115  1  0.34386055  0.71852444  0.13649386  1
  C  C116  1  0.28078877  0.98534346  0.28337836  1
  O  O117  1  0.35214720  0.70812028  0.04966352  1
  H  H118  1  0.43541549  0.58197046  0.24954347  1
  O  O119  1  0.36002439  0.79761070  0.17558512  1
  H  H120  1  0.30675818  0.96730918  0.35211365  1
  H  H121  1  0.40762698  0.52823937  0.14389829  1
  H  H122  1  0.31696242  0.68899229  0.32522528  1
  H  H123  1  0.30719718  0.93138226  0.23002211  1
  C  C124  1  0.37890815  0.55617747  0.20932492  1
  C  C125  1  0.26712511  0.66124667  0.28046433  1
  H  H126  1  0.27212367  0.56184773  0.06133321  1
  H  H127  1  0.34128625  0.50471462  0.39632348  1
  C  C128  1  0.38405696  0.96280973  0.92526190  1
  H  H129  1  0.39074200  0.57373678  0.90990333  1
  H  H130  1  0.34611507  0.90623596  0.74902409  1
  C  C131  1  0.48690187  0.59284535  0.75183460  1
  H  H132  1  0.46579543  0.81459023  0.84079511  1
  C  C133  1  0.43480624  0.97816068  0.84339979  1
  C  C134  1  0.34219960  0.66667438  0.75032665  1
  C  C135  1  0.37113541  0.52353085  0.85186748  1
  H  H136  1  0.38590297  0.53384008  0.60688542  1
  O  O137  1  0.34262728  0.72522325  0.81729062  1
  O  O138  1  0.31174357  0.92539257  0.93126937  1
  O  O139  1  0.36606147  0.92449898  0.54213341  1
  C  C140  1  0.38877320  0.57590781  0.75821099  1
  O  O141  1  0.30941451  0.68539388  0.67392233  1
  H  H142  1  0.46824970  0.83214525  0.65898352  1
  Zn  Zn143  1  0.27726787  0.76695306  0.93898359  1
  C  C144  1  0.38065172  0.97863840  0.76023273  1
  H  H145  1  0.29643266  0.51972049  0.85333680  1
  C  C146  1  0.37047787  0.50126491  0.67618539  1
  C  C147  1  0.44226494  0.99546362  0.67228126  1
  C  C148  1  0.38278710  0.99761087  0.58370586  1
  O  O149  1  0.42671240  0.98432036  0.99530410  1
  H  H150  1  0.59934514  0.19543621  0.29328963  1
  C  C151  1  0.68824936  0.13907120  0.18335354  1
  C  C152  1  0.66944918  0.16692055  0.28646692  1
  H  H153  1  0.52823228  0.36409746  0.28975440  1
  C  C154  1  0.65751657  0.11389316  0.44960602  1
  C  C155  1  0.66510407  0.22184383  0.12204999  1
  C  C156  1  0.68594611  0.08264003  0.35472306  1
  C  C157  1  0.63717007  0.04686525  0.15044837  1
  O  O158  1  0.59645542  0.26920350  0.13496825  1
  Zn  Zn159  1  0.53113728  0.39755317  0.10405515  1
  H  H160  1  0.71193243  0.23106491  0.30987122  1
  H  H161  1  0.56773096  0.07046730  0.15117942  1
  H  H162  1  0.71556900  0.38727938  0.18248977  1
  H  H163  1  0.69756962  0.40554892  0.35622114  1
  O  O164  1  0.71547405  0.24374215  0.05825486  1
  O  O165  1  0.59755970  0.17663153  0.45882201  1
  H  H166  1  0.65085073  0.03093696  0.07680925  1
  C  C167  1  0.74246090  0.47025718  0.35775032  1
  O  O168  1  0.50296005  0.41353422  0.25571873  1
  H  H169  1  0.56602010  0.01282766  0.32173963  1
  H  H170  1  0.51884952  0.07873958  0.91825322  1
  C  C171  1  0.61356087  0.17707490  0.77402225  1
  H  H172  1  0.54820058  0.34362687  0.69152421  1
  H  H173  1  0.53877993  0.09230656  0.61788032  1
  C  C174  1  0.55023536  0.08628073  0.77059437  1
  O  O175  1  0.63855512  0.20855450  0.85052023  1
  O  O176  1  0.64727116  0.20763205  0.70266813  1
  H  H177  1  0.54362676  0.45433105  0.61899981  1
  O  O178  1  0.69714334  0.08306316  0.51725486  1
  C  C179  1  0.51677839  0.44246157  0.86064944  1
  H  H180  1  0.55666519  0.37434496  0.86906533  1
  C  C181  1  0.51590720  0.41810769  0.68182558  1
  H  H182  1  0.53163271  0.49283589  0.91903736  1
  C  C183  1  0.53758304  0.49192952  0.76366825  1
  O  O184  1  0.71411310  0.59627706  0.02411721  1
  C  C185  1  0.61395495  0.86450075  0.19301942  1
  C  C186  1  0.69346135  0.57031522  0.34776466  1
  O  O187  1  0.56628565  0.86432898  0.12281085  1
  C  C188  1  0.64340629  0.57030651  0.25273898  1
  H  H189  1  0.60301453  0.63982769  0.24496901  1
  O  O190  1  0.61405595  0.78975674  0.23753353  1
  C  C191  1  0.64324221  0.57909282  0.44427517  1
  C  C192  1  0.66162700  0.96157037  0.21929703  1
  C  C193  1  0.70761301  0.55522417  0.17519506  1
  C  C194  1  0.66598162  0.56039606  0.08280887  1
  H  H195  1  0.65101418  0.92341374  0.36616363  1
  O  O196  1  0.58783246  0.53649408  0.07378663  1
  H  H197  1  0.73495451  0.73045265  0.34068335  1
  O  O198  1  0.59698865  0.51080413  0.46103172  1
  C  C199  1  0.63741409  0.99173491  0.32239894  1
  O  O200  1  0.64721322  0.65667919  0.49256773  1
  H  H201  1  0.59667681  0.50918603  0.25109622  1
  H  H202  1  0.73547295  0.70929815  0.18042101  1
  H  H203  1  0.54359408  0.88464311  0.90573712  1
  C  C204  1  0.62097430  0.81087289  0.75225121  1
  H  H205  1  0.65483806  0.99935466  0.70477444  1
  Zn  Zn206  1  0.71741134  0.65065029  0.88036674  1
  H  H207  1  0.55057107  0.91585462  0.61173640  1
  O  O208  1  0.65479895  0.78860132  0.67824480  1
  O  O209  1  0.62117271  0.76135142  0.82319549  1
  Zn  Zn210  1  0.71684320  0.66227733  0.61679971  1
  C  C211  1  0.55984918  0.89882600  0.75677800  1
  H  H212  1  0.65695041  0.98333019  0.82906374  1
  O  O213  1  0.67271607  0.51476703  0.67870046  1
  C  C214  1  0.61355318  0.99252719  0.76742273  1
  H  H215  1  0.50989577  0.64480872  0.80523833  1
  O  O216  1  0.68236639  0.51312741  0.82643971  1
  C  C217  1  0.63738577  0.51339880  0.75491837  1
  H  H218  1  0.50538240  0.62450021  0.68627444  1
  C  C219  1  0.50532490  0.90289595  0.66861509  1
  C  C220  1  0.50048958  0.88547534  0.84006719  1
  C  C221  1  0.75738323  0.45743699  0.18654648  1
  H  H222  1  0.82717632  0.18311829  0.18888778  1
  H  H223  1  0.80607185  0.09649447  0.10439287  1
  O  O224  1  0.82900336  0.29263249  0.31667946  1
  C  C225  1  0.78447862  0.06572723  0.35249359  1
  H  H226  1  0.81675647  0.14192816  0.36634388  1
  C  C227  1  0.86070246  0.36515981  0.28495157  1
  C  C228  1  0.78462240  0.11636068  0.17400894  1
  O  O229  1  0.89741681  0.38786193  0.01850427  1
  C  C230  1  0.81158246  0.46212871  0.27820375  1
  C  C231  1  0.80730207  0.03430908  0.24952811  1
  H  H232  1  0.78288115  0.46490445  0.42123262  1
  H  H233  1  0.80068162  0.45695592  0.12444364  1
  O  O234  1  0.94158476  0.36968702  0.26080767  1
  C  C235  1  0.90673436  0.01661911  0.25324092  1
  O  O236  1  0.94901523  0.02706665  0.32029845  1
  Zn  Zn237  1  0.99552159  0.33320591  0.13125585  1
  H  H238  1  0.81004863  0.00720557  0.40581394  1
  O  O239  1  0.80407142  0.04226220  0.88843054  1
  C  C240  1  0.90604804  0.38751511  0.68231437  1
  C  C241  1  0.86843598  0.48872525  0.68240749  1
  O  O242  1  0.86284170  0.23855813  0.59745735  1
  C  C243  1  0.88330251  0.33470738  0.77679393  1
  H  H244  1  0.91354061  0.26172306  0.76802023  1
  Zn  Zn245  1  0.75495862  0.18199798  0.93102657  1
  C  C246  1  0.86617829  0.33394898  0.59142291  1
  Zn  Zn247  1  0.76066707  0.14526579  0.63717740  1
  H  H248  1  0.81367910  0.49299120  0.87459369  1
  O  O249  1  0.83606221  0.38139304  0.52954381  1
  H  H250  1  0.81145992  0.32594312  0.78236840  1
  C  C251  1  0.89402397  0.33845673  0.94825066  1
  C  C252  1  0.91901383  0.39141392  0.85946079  1
  O  O253  1  0.88022492  0.24789589  0.94915740  1
  C  C254  1  0.88261217  0.49520261  0.86176635  1
  C  C255  1  0.99002933  0.07319411  0.79690118  1
  H  H256  1  0.96306263  0.11615521  0.73534215  1
  H  H257  1  0.98555484  0.12457571  0.85658299  1
  H  H258  1  0.79658950  0.48103749  0.67565429  1
  C  C259  1  0.83834885  0.02052043  0.81103729  1
  O  O260  1  0.80113076  0.03892937  0.73589313  1
  H  H261  1  0.94086487  0.53171372  0.28022148  1
  H  H262  1  0.77409577  0.87761968  0.27609081  1
  C  C263  1  0.76236626  0.65528559  0.34918589  1
  H  H264  1  0.82410881  0.63607674  0.12684123  1
  C  C265  1  0.77579634  0.63942243  0.18203563  1
  C  C266  1  0.83289138  0.63539342  0.27352775  1
  C  C267  1  0.89388938  0.72199763  0.27768282  1
  C  C268  1  0.87119899  0.54365959  0.28078594  1
  O  O269  1  0.91559631  0.75289123  0.35698074  1
  O  O270  1  0.90842801  0.76601334  0.20675033  1
  H  H271  1  0.79282975  0.66333364  0.42006716  1
  H  H272  1  0.77551068  0.90695078  0.15490752  1
  C  C273  1  0.75849394  0.93473289  0.22447296  1
  H  H274  1  0.90101251  0.98501797  0.12878188  1
  O  O275  1  0.95328482  0.98480170  0.16372699  1
  C  C276  1  0.85308666  0.65082567  0.75448559  1
  H  H277  1  0.89243878  0.86028984  0.70727537  1
  O  O278  1  0.83077053  0.69810960  0.82409946  1
  C  C279  1  0.92823497  0.97929675  0.80754792  1
  C  C280  1  0.95562561  0.92099518  0.87975933  1
  H  H281  1  0.90933316  0.54354933  0.91992096  1
  C  C282  1  0.93883932  0.92420537  0.71112385  1
  O  O283  1  0.83930747  0.69072525  0.67756329  1
  H  H284  1  0.90738578  0.88949319  0.92355981  1
  H  H285  1  0.92588554  0.97767916  0.65580711  1
  C  C286  1  0.89951972  0.54683045  0.76214985  1
  H  H287  1  0.88633851  0.52897020  0.61917454  1
