# generated using pymatgen
data_CuH5C12NO4
_symmetry_space_group_name_H-M   'P 1'
_cell_length_a   27.48238742
_cell_length_b   18.81320381
_cell_length_c   19.63249127
_cell_angle_alpha   90.00000000
_cell_angle_beta   90.00000000
_cell_angle_gamma   90.00000000
_symmetry_Int_Tables_number   1
_chemical_formula_structural   CuH5C12NO4
_chemical_formula_sum   'Cu24 H120 C288 N24 O96'
_cell_volume   10150.62142815
_cell_formula_units_Z   24
loop_
 _symmetry_equiv_pos_site_id
 _symmetry_equiv_pos_as_xyz
  1  'x, y, z'
loop_
 _atom_site_type_symbol
 _atom_site_label
 _atom_site_symmetry_multiplicity
 _atom_site_fract_x
 _atom_site_fract_y
 _atom_site_fract_z
 _atom_site_occupancy
  H  H0  1  0.04935195  0.11136935  0.09513318  1
  C  C1  1  0.22672497  0.18764950  0.02644065  1
  C  C2  1  0.14495643  0.06234740  0.12262035  1
  C  C3  1  0.13033142  0.13960371  0.03317085  1
  Cu  Cu4  1  0.18326480  0.29768632  0.11088113  1
  H  H5  1  0.21083957  0.12135255  0.22527816  1
  H  H6  1  0.09294321  0.11879424  0.03461180  1
  O  O7  1  0.16268522  0.36506884  0.05311405  1
  O  O8  1  0.20681240  0.24270802  0.17469437  1
  C  C9  1  0.11387842  0.03132667  0.15489804  1
  N  N10  1  0.02301550  0.07686093  0.10975008  1
  C  C11  1  0.02349788  0.01891765  0.15097417  1
  C  C12  1  0.21578213  0.13529465  0.07240724  1
  C  C13  1  0.16689328  0.11319197  0.07776497  1
  H  H14  1  0.24306351  0.11377251  0.10812171  1
  O  O15  1  0.23545439  0.40875779  0.02974914  1
  H  H16  1  0.03823181  0.43621937  0.02268380  1
  C  C17  1  0.19036328  0.40765542  0.02166749  1
  C  C18  1  0.06951890  0.00302766  0.18496686  1
  C  C19  1  0.02167790  0.44620032  0.07362342  1
  C  C20  1  0.24907236  0.00577597  0.28387999  1
  H  H21  1  0.11808078  0.00957013  0.29076918  1
  C  C22  1  0.00711734  0.10624719  0.82246496  1
  O  O23  1  0.06330730  0.17979380  0.93686594  1
  Cu  Cu24  1  0.00494278  0.23255911  0.94391889  1
  H  H25  1  0.20033561  0.25251501  0.93727734  1
  Cu  Cu26  1  0.12521621  0.19382664  0.79190439  1
  C  C27  1  0.10809422  0.19827390  0.92770736  1
  H  H28  1  0.15316016  0.33797273  0.69878780  1
  O  O29  1  0.08953760  0.12652953  0.74790866  1
  C  C30  1  0.08238397  0.06524572  0.76988012  1
  O  O31  1  0.11913390  0.23508058  0.87635759  1
  C  C32  1  0.19078984  0.42424648  0.75288441  1
  C  C33  1  0.18442552  0.35485471  0.72907910  1
  O  O34  1  0.17184284  0.21221656  0.72518835  1
  O  O35  1  0.17058035  0.01888994  0.64316322  1
  C  C36  1  0.14447386  0.18503640  0.97834172  1
  C  C37  1  0.03798435  0.04898153  0.80938374  1
  C  C38  1  0.22932958  0.45058143  0.79003112  1
  C  C39  1  0.22125895  0.30880463  0.75032766  1
  C  C40  1  0.16894723  0.46180381  0.97710631  1
  C  C41  1  0.19120006  0.21349189  0.98121667  1
  C  C42  1  0.21494232  0.23071246  0.73822667  1
  C  C43  1  0.11899607  0.46617779  0.96470096  1
  H  H44  1  0.01563222  0.15925287  0.80004509  1
  C  C45  1  0.15359375  0.47534249  0.72608548  1
  O  O46  1  0.11129036  0.01375029  0.75776015  1
  H  H47  1  0.09526088  0.42930133  0.98992044  1
  O  O48  1  0.24470730  0.00048881  0.68336952  1
  O  O49  1  0.24906628  0.18727843  0.74547029  1
  O  O50  1  0.00731485  0.31692966  0.99791239  1
  C  C51  1  0.04961768  0.71200892  0.04249289  1
  C  C52  1  0.24274913  0.85977093  0.46408222  1
  O  O53  1  0.13611657  0.95467876  0.41282889  1
  C  C54  1  0.18019127  0.88102018  0.04819661  1
  H  H55  1  0.10592018  0.93880606  0.33374308  1
  C  C56  1  0.04279047  0.57834198  0.08039967  1
  O  O57  1  0.08380510  0.80669291  0.17431385  1
  C  C58  1  0.01772251  0.94421739  0.27755497  1
  C  C59  1  0.06409342  0.96885803  0.24832165  1
  C  C60  1  0.00364565  0.83199222  0.04071820  1
  C  C61  1  0.17030453  0.91588327  0.40523496  1
  O  O62  1  0.14674168  0.82111179  0.23963611  1
  N  N63  1  0.10706847  0.95518321  0.28608237  1
  C  C64  1  0.06748964  0.71075467  0.46438235  1
  H  H65  1  0.17164510  0.72927254  0.01478569  1
  C  C66  1  0.22839098  0.88358236  0.08066787  1
  C  C67  1  0.24364846  0.82484790  0.12210503  1
  Cu  Cu68  1  0.17323245  0.91403746  0.25223743  1
  C  C69  1  0.04821195  0.63943927  0.06079541  1
  C  C70  1  0.02339473  0.76148330  0.26800983  1
  C  C71  1  0.00303697  0.72485598  0.38189408  1
  C  C72  1  0.05191575  0.74281288  0.40008003  1
  H  H73  1  0.12074677  0.79265510  0.37099251  1
  C  C74  1  0.06935808  0.78272331  0.28947533  1
  H  H75  1  0.21986241  0.77722806  0.12870956  1
  C  C76  1  0.08504685  0.77479386  0.35600101  1
  C  C77  1  0.04840013  0.86548451  0.01977590  1
  C  C78  1  0.10116970  0.80525038  0.23009721  1
  O  O79  1  0.17872298  0.88288740  0.34711844  1
  N  N80  1  0.13595058  0.71112972  0.01578760  1
  C  C81  1  0.20437058  0.90731947  0.46460554  1
  H  H82  1  0.24957547  0.98654860  0.04206208  1
  H  H83  1  0.00033144  0.57199385  0.20385356  1
  C  C84  1  0.09462070  0.82537702  0.02229948  1
  O  O85  1  0.20214834  0.99889655  0.26735872  1
  C  C86  1  0.13960425  0.86192891  0.03126303  1
  C  C87  1  0.09475911  0.74896630  0.02844483  1
  C  C88  1  0.00343368  0.92254657  0.34479799  1
  H  H89  1  0.24820697  0.82424547  0.42060679  1
  C  C90  1  0.00630930  0.75493188  0.04913622  1
  C  C91  1  0.02441266  0.50991698  0.11044809  1
  H  H92  1  0.01109055  0.76998811  0.21263199  1
  H  H93  1  0.13686534  0.66186835  0.03371014  1
  N  N94  1  0.03319266  0.53925972  0.76119886  1
  C  C95  1  0.02653012  0.98170734  0.83474316  1
  C  C96  1  0.05041338  0.55043082  0.92525644  1
  C  C97  1  0.03831322  0.89637397  0.64161895  1
  O  O98  1  0.19902903  0.65501646  0.83164030  1
  C  C99  1  0.08624382  0.56082374  0.67068258  1
  C  C100  1  0.10119614  0.52649718  0.93051060  1
  C  C101  1  0.05704446  0.64495352  0.58359627  1
  N  N102  1  0.13971415  0.58320717  0.58227655  1
  H  H103  1  0.05304723  0.68643074  0.87125899  1
  H  H104  1  0.12105411  0.62089031  0.86628988  1
  C  C105  1  0.18291848  0.56732927  0.90710945  1
  C  C106  1  0.21826887  0.61818609  0.87163276  1
  H  H107  1  0.05064374  0.93477463  0.82268462  1
  C  C108  1  0.01084474  0.89231677  0.52125472  1
  C  C109  1  0.00968579  0.65779719  0.61319527  1
  O  O110  1  0.02866411  0.88675199  0.69894874  1
  Cu  Cu111  1  0.11528111  0.97714449  0.67482736  1
  C  C112  1  0.03925713  0.57605676  0.70156451  1
  C  C113  1  0.01200202  0.58246785  0.92268223  1
  C  C114  1  0.06671820  0.68152151  0.52022426  1
  H  H115  1  0.16296506  0.54698547  0.60774037  1
  C  C116  1  0.12332006  0.51523435  0.70214597  1
  C  C117  1  0.09556209  0.60156412  0.60922863  1
  C  C118  1  0.13307668  0.57698808  0.89871424  1
  C  C119  1  0.21288026  0.99521972  0.63758761  1
  H  H120  1  0.00108984  0.54382792  0.79021616  1
  O  O121  1  0.08229509  0.91368639  0.62218528  1
  H  H122  1  0.03524684  0.76893085  0.85319825  1
  N  N123  1  0.02409209  0.72057186  0.86338966  1
  C  C124  1  0.22854391  0.94967062  0.58028723  1
  C  C125  1  0.00009331  0.61726096  0.67631848  1
  C  C126  1  0.19765112  0.94785243  0.52394704  1
  C  C127  1  0.19961902  0.51287556  0.94774477  1
  H  H128  1  0.15272362  0.58347419  0.53338796  1
  H  H129  1  0.23232937  0.50936784  0.80693684  1
  H  H130  1  0.04971264  0.90258115  0.50522020  1
  H  H131  1  0.16236573  0.97630664  0.52590472  1
  H  H132  1  0.05746626  0.50507069  0.77907598  1
  H  H133  1  0.23862223  0.51114897  0.95739805  1
  H  H134  1  0.07910971  0.95982033  0.97528422  1
  N  N135  1  0.04934293  0.93252468  0.99618941  1
  H  H136  1  0.02008361  0.96720388  0.98892745  1
  O  O137  1  0.43413895  0.19006399  0.15838209  1
  O  O138  1  0.45487424  0.07244295  0.07884900  1
  C  C139  1  0.27511223  0.21933175  0.02586026  1
  C  C140  1  0.46729519  0.17735909  0.44748074  1
  C  C141  1  0.32519490  0.07521318  0.28188000  1
  C  C142  1  0.32660527  0.19609177  0.23156594  1
  O  O143  1  0.42144666  0.26476733  0.07540549  1
  O  O144  1  0.30763152  0.18247339  0.05653506  1
  C  C145  1  0.48936157  0.26918813  0.36567725  1
  H  H146  1  0.34357275  0.24640181  0.22298769  1
  N  N147  1  0.48524476  0.29710509  0.30239307  1
  H  H148  1  0.46350394  0.27453345  0.26314761  1
  C  C149  1  0.44753133  0.23686665  0.11577319  1
  O  O150  1  0.27879901  0.29573104  0.16932231  1
  H  H151  1  0.34706682  0.03143228  0.30611660  1
  C  C152  1  0.46720018  0.20029309  0.37810845  1
  C  C153  1  0.43494895  0.17150163  0.32423010  1
  C  C154  1  0.39947942  0.15513144  0.29135632  1
  C  C155  1  0.34849604  0.14060381  0.26616037  1
  H  H156  1  0.43438469  0.07426472  0.42748696  1
  Cu  Cu157  1  0.40452176  0.10074745  0.14465819  1
  O  O158  1  0.32509186  0.04659528  0.04676383  1
  C  C159  1  0.27624574  0.07126352  0.26785723  1
  N  N160  1  0.44653404  0.11289305  0.46178442  1
  C  C161  1  0.27658308  0.18503778  0.21946513  1
  Cu  Cu162  1  0.35956315  0.12879686  0.02579435  1
  C  C163  1  0.25077899  0.24707957  0.19115886  1
  H  H164  1  0.49569939  0.34580990  0.28360705  1
  Cu  Cu165  1  0.26600514  0.34661933  0.09160930  1
  O  O166  1  0.28076901  0.28421508  0.01179492  1
  C  C167  1  0.45590309  0.07800642  0.01549323  1
  C  C168  1  0.25036212  0.12403566  0.23403367  1
  C  C169  1  0.33276928  0.00608015  0.09711641  1
  O  O170  1  0.37093360  0.01391881  0.13435490  1
  C  C171  1  0.46538401  0.18114827  0.63480887  1
  C  C172  1  0.38288010  0.15456408  0.78795832  1
  C  C173  1  0.46311107  0.30070526  0.85794938  1
  O  O174  1  0.31528596  0.07748773  0.75469401  1
  C  C175  1  0.44571843  0.18313561  0.70589038  1
  C  C176  1  0.30534822  0.42918773  0.84698994  1
  O  O177  1  0.30077161  0.48761734  0.87663654  1
  H  H178  1  0.37995705  0.22195250  0.87628413  1
  C  C179  1  0.33677888  0.11532209  0.80338727  1
  C  C180  1  0.49366053  0.09454789  0.90438119  1
  C  C181  1  0.26454336  0.32975215  0.78415200  1
  H  H182  1  0.29511689  0.29123259  0.79559766  1
  O  O183  1  0.31810353  0.12279946  0.85810158  1
  O  O184  1  0.34017854  0.38818112  0.86048473  1
  H  H185  1  0.38984143  0.10067446  0.69836274  1
  C  C186  1  0.47824705  0.19304040  0.57665654  1
  C  C187  1  0.44428186  0.24397339  0.81252322  1
  C  C188  1  0.40462512  0.14131359  0.72716868  1
  O  O189  1  0.49871473  0.33561699  0.83630365  1
  C  C190  1  0.40075762  0.20927397  0.82984159  1
  Cu  Cu191  1  0.39721487  0.41046919  0.89290345  1
  H  H192  1  0.45930218  0.09182415  0.87935990  1
  C  C193  1  0.46780260  0.23093386  0.75181834  1
  C  C194  1  0.26592532  0.40037995  0.80314968  1
  C  C195  1  0.49963315  0.08983502  0.97529226  1
  O  O196  1  0.43681744  0.32286556  0.90549353  1
  Cu  Cu197  1  0.25189035  0.09192751  0.72495527  1
  O  O198  1  0.41467538  0.08836039  0.98502709  1
  H  H199  1  0.45140189  0.08075380  0.50383344  1
  C  C200  1  0.48389681  0.21522088  0.50615900  1
  O  O201  1  0.45546276  0.68266578  0.22384256  1
  H  H202  1  0.45810754  0.88897252  0.35403498  1
  C  C203  1  0.31720559  0.88915237  0.15324999  1
  Cu  Cu204  1  0.39990354  0.73276937  0.23210239  1
  C  C205  1  0.26005439  0.94049132  0.07179251  1
  C  C206  1  0.41952941  0.76600444  0.45601366  1
  C  C207  1  0.29958594  0.76399101  0.19562096  1
  O  O208  1  0.33513709  0.76882870  0.23813100  1
  O  O209  1  0.27052691  0.95879164  0.31194742  1
  H  H210  1  0.36460978  0.83889366  0.41757213  1
  C  C211  1  0.46822436  0.73907682  0.44591422  1
  C  C212  1  0.48954383  0.68686046  0.49096821  1
  C  C213  1  0.30419450  0.94256554  0.10680411  1
  C  C214  1  0.46067302  0.61830384  0.24778632  1
  C  C215  1  0.28764114  0.82944641  0.15483755  1
  C  C216  1  0.45115907  0.86735857  0.21251311  1
  O  O217  1  0.43417671  0.57242750  0.22764339  1
  O  O218  1  0.42070729  0.82406758  0.24612539  1
  O  O219  1  0.27025549  0.71716700  0.18682471  1
  N  N220  1  0.39766047  0.81106287  0.41101646  1
  C  C221  1  0.47777131  0.92808272  0.32458285  1
  H  H222  1  0.41068092  0.82265327  0.36477385  1
  H  H223  1  0.35237991  0.89295544  0.18194556  1
  C  C224  1  0.47980057  0.92111568  0.25492591  1
  O  O225  1  0.45266654  0.85967700  0.15234508  1
  C  C226  1  0.49826366  0.54009885  0.33123372  1
  H  H227  1  0.46825406  0.50502842  0.32207938  1
  C  C228  1  0.46252150  0.65349749  0.54386975  1
  O  O229  1  0.26471163  0.62357577  0.88436390  1
  C  C230  1  0.26992324  0.90823312  0.57855873  1
  H  H231  1  0.39269094  0.60230208  0.63199746  1
  H  H232  1  0.42628862  0.65092582  0.75463161  1
  O  O233  1  0.38085369  0.55604968  0.80628846  1
  C  C234  1  0.41862303  0.54750422  0.84252888  1
  C  C235  1  0.27587237  0.86213984  0.52125029  1
  Cu  Cu236  1  0.32046309  0.58195658  0.84660761  1
  C  C237  1  0.41258872  0.67475334  0.55428205  1
  C  C238  1  0.45874045  0.59779245  0.84026111  1
  C  C239  1  0.49218827  0.60784452  0.58726562  1
  H  H240  1  0.29508948  0.90901799  0.62009431  1
  C  C241  1  0.45603097  0.65297540  0.79119777  1
  N  N242  1  0.38415606  0.64813956  0.60577054  1
  H  H243  1  0.34749851  0.65156746  0.60384330  1
  C  C244  1  0.31739801  0.81293032  0.52434388  1
  C  C245  1  0.49237470  0.70469758  0.78798675  1
  C  C246  1  0.35033427  0.76945384  0.52340262  1
  C  C247  1  0.49818388  0.75357896  0.72931096  1
  H  H248  1  0.49283070  0.55734283  0.92975054  1
  C  C249  1  0.49497811  0.59445068  0.88776382  1
  O  O250  1  0.41921671  0.50142086  0.89011376  1
  C  C251  1  0.39320509  0.72843499  0.50873495  1
  C  C252  1  0.63507516  0.19950202  0.42805277  1
  H  H253  1  0.66197145  0.49672762  0.14412781  1
  C  C254  1  0.62737986  0.25345652  0.37972397  1
  O  O255  1  0.64559611  0.10487223  0.05533081  1
  C  C256  1  0.61296969  0.24267535  0.30741000  1
  H  H257  1  0.51216361  0.19888262  0.21239158  1
  C  C258  1  0.58141051  0.24934688  0.17968016  1
  O  O259  1  0.70410804  0.20049863  0.20970617  1
  C  C260  1  0.62894820  0.32727244  0.40246986  1
  H  H261  1  0.55695861  0.06866522  0.34389307  1
  C  C262  1  0.63466033  0.34569897  0.47413516  1
  C  C263  1  0.60184664  0.29116453  0.12632982  1
  C  C264  1  0.57289300  0.31391385  0.07512280  1
  Cu  Cu265  1  0.69972656  0.11098395  0.33016799  1
  O  O266  1  0.60049460  0.09865218  0.24441578  1
  H  H267  1  0.73880499  0.21970923  0.09585467  1
  C  C268  1  0.74469331  0.17032587  0.21914791  1
  C  C269  1  0.52982000  0.44243236  0.39550219  1
  C  C270  1  0.52307613  0.29698500  0.06920503  1
  O  O271  1  0.58671018  0.03767844  0.15144949  1
  N  N272  1  0.64184123  0.12969395  0.39612466  1
  H  H273  1  0.61226361  0.10834010  0.37163829  1
  H  H274  1  0.62562353  0.37400876  0.30106442  1
  Cu  Cu275  1  0.65244032  0.14976146  0.22995873  1
  C  C276  1  0.57721498  0.05150765  0.21105599  1
  N  N277  1  0.62305404  0.37855961  0.35358409  1
  C  C278  1  0.60114246  0.24609384  0.24817779  1
  H  H279  1  0.64723093  0.09185847  0.43495585  1
  Cu  Cu280  1  0.64615357  0.01439788  0.09858148  1
  C  C281  1  0.53746621  0.02392273  0.31940186  1
  C  C282  1  0.54163009  0.00874629  0.25025103  1
  H  H283  1  0.62928363  0.43268725  0.36610910  1
  O  O284  1  0.69797969  0.38850959  0.11588352  1
  H  H285  1  0.63972900  0.31262990  0.13127032  1
  C  C286  1  0.52457510  0.37961272  0.41174534  1
  C  C287  1  0.53146664  0.23026655  0.17190711  1
  H  H288  1  0.54510796  0.08637332  0.06526081  1
  C  C289  1  0.58863545  0.35433900  0.00869777  1
  C  C290  1  0.64529588  0.21468402  0.49906407  1
  O  O291  1  0.70678154  0.01293275  0.35278196  1
  H  H292  1  0.50065850  0.31456322  0.02720237  1
  C  C293  1  0.50735834  0.28413369  0.49360379  1
  C  C294  1  0.73588913  0.49608710  0.09446228  1
  C  C295  1  0.73407755  0.41713550  0.09734514  1
  C  C296  1  0.50933251  0.30616294  0.42318388  1
  C  C297  1  0.50161981  0.25537498  0.12142829  1
  C  C298  1  0.64458425  0.41889808  0.49209262  1
  C  C299  1  0.54400317  0.09261320  0.01071222  1
  H  H300  1  0.50205605  0.25386294  0.73153901  1
  C  C301  1  0.67743765  0.11949728  0.58941816  1
  H  H302  1  0.56540345  0.11828445  0.62980703  1
  O  O303  1  0.66807132  0.12739717  0.95255788  1
  C  C304  1  0.69655350  0.06982677  0.64268741  1
  C  C305  1  0.63325788  0.11108793  0.99416725  1
  C  C306  1  0.53684306  0.09585898  0.86630070  1
  C  C307  1  0.64026223  0.28661582  0.52312522  1
  H  H308  1  0.55139756  0.36155872  0.53298752  1
  Cu  Cu309  1  0.72974448  0.09890716  0.95325308  1
  C  C310  1  0.58453336  0.09844720  0.96772903  1
  H  H311  1  0.64417376  0.48866988  0.81213753  1
  H  H312  1  0.73128318  0.15088449  0.70562751  1
  N  N313  1  0.52369205  0.32820455  0.54347221  1
  C  C314  1  0.66506056  0.15943222  0.54377558  1
  H  H315  1  0.61665737  0.09618572  0.86335992  1
  H  H316  1  0.53529228  0.43235921  0.65810929  1
  C  C317  1  0.58242707  0.09295980  0.89639435  1
  C  C318  1  0.66081447  0.47864979  0.50203665  1
  C  C319  1  0.58710109  0.37454375  0.75210330  1
  Cu  Cu320  1  0.56291788  0.33522294  0.88148431  1
  O  O321  1  0.57095263  0.33690007  0.70812557  1
  O  O322  1  0.60281156  0.34872274  0.80866514  1
  N  N323  1  0.63641704  0.29478099  0.59027439  1
  H  H324  1  0.56484355  0.09581498  0.54679145  1
  C  C325  1  0.59124450  0.45525237  0.73572819  1
  C  C326  1  0.72014519  0.09607575  0.70245913  1
  H  H327  1  0.52323756  0.32434712  0.59380114  1
  C  C328  1  0.53986933  0.08044898  0.79258353  1
  H  H329  1  0.62949327  0.25818016  0.63210514  1
  H  H330  1  0.63501981  0.34832536  0.60988294  1
  C  C331  1  0.54385875  0.00060660  0.68387160  1
  C  C332  1  0.73112400  0.04950553  0.75538375  1
  C  C333  1  0.54265960  0.05395228  0.73627393  1
  N  N334  1  0.55787468  0.08249953  0.59541210  1
  O  O335  1  0.74458788  0.05411325  0.87577177  1
  O  O336  1  0.55582291  0.36433388  0.96451394  1
  C  C337  1  0.54542172  0.01442319  0.61098466  1
  C  C338  1  0.56153744  0.47315872  0.68128829  1
  O  O339  1  0.63095074  0.36429222  0.99579098  1
  C  C340  1  0.62697409  0.66466644  0.34243618  1
  O  O341  1  0.62746618  0.72168879  0.30162287  1
  C  C342  1  0.64397501  0.93621619  0.28064497  1
  C  C343  1  0.67652206  0.97689870  0.38869009  1
  O  O344  1  0.66239600  0.65040155  0.37508811  1
  C  C345  1  0.57712411  0.56226914  0.38429426  1
  O  O346  1  0.72864247  0.78621743  0.19631647  1
  O  O347  1  0.65276545  0.70512856  0.16392267  1
  C  C348  1  0.61184747  0.89199922  0.24366701  1
  C  C349  1  0.73019279  0.64277231  0.09506335  1
  C  C350  1  0.60626834  0.89442813  0.38835298  1
  C  C351  1  0.57456689  0.85324094  0.34641311  1
  C  C352  1  0.61577013  0.89079352  0.16659920  1
  H  H353  1  0.54307634  0.69913961  0.28280660  1
  H  H354  1  0.72792943  0.89375983  0.13408659  1
  Cu  Cu355  1  0.67687765  0.74797239  0.24268238  1
  C  C356  1  0.65063812  0.63459859  0.15760733  1
  H  H357  1  0.60699196  0.89729330  0.44241595  1
  O  O358  1  0.65171813  0.92460657  0.13853302  1
  C  C359  1  0.57517541  0.85361800  0.27421836  1
  O  O360  1  0.58613769  0.85842545  0.13595566  1
  H  H361  1  0.60553633  0.53907997  0.41782877  1
  C  C362  1  0.64011507  0.93253962  0.35051975  1
  C  C363  1  0.54135797  0.64644474  0.30570860  1
  C  C364  1  0.53571736  0.51569693  0.37637462  1
  C  C365  1  0.72385271  0.54413790  0.44874076  1
  C  C366  1  0.58000092  0.62351597  0.34645614  1
  O  O367  1  0.61712537  0.60038598  0.17675701  1
  H  H368  1  0.54823859  0.82287169  0.24701371  1
  O  O369  1  0.67475604  0.97576083  0.45108340  1
  C  C370  1  0.69506261  0.60002788  0.12617947  1
  H  H371  1  0.52035664  0.94652855  0.15726375  1
  H  H372  1  0.55995096  0.68868240  0.43969378  1
  C  C373  1  0.69410264  0.52666447  0.12446309  1
  C  C374  1  0.53502802  0.81174642  0.37584541  1
  H  H375  1  0.72974562  0.70185422  0.09964377  1
  H  H376  1  0.67156424  0.96806784  0.25135288  1
  N  N377  1  0.53865862  0.67591733  0.48380400  1
  O  O378  1  0.70646480  0.98924162  0.05304891  1
  C  C379  1  0.51435069  0.95763424  0.21366346  1
  C  C380  1  0.50255580  0.77446431  0.39931411  1
  C  C381  1  0.50109056  0.60202709  0.29666275  1
  C  C382  1  0.50701336  0.97846235  0.35959815  1
  C  C383  1  0.51609415  0.97561351  0.43415342  1
  C  C384  1  0.52462264  0.96908553  0.49447113  1
  H  H385  1  0.71839738  0.50756932  0.41017629  1
  H  H386  1  0.51782719  0.83166635  0.49892847  1
  O  O387  1  0.60567750  0.69360226  0.93198686  1
  H  H388  1  0.58974762  0.65145826  0.67549074  1
  C  C389  1  0.57243822  0.64475072  0.93445879  1
  O  O390  1  0.70376295  0.84958483  0.61866531  1
  C  C391  1  0.61885503  0.50395552  0.77162919  1
  C  C392  1  0.55782358  0.54606934  0.66637521  1
  C  C393  1  0.53104763  0.64778744  0.88368430  1
  O  O394  1  0.66848262  0.61018286  0.84495958  1
  Cu  Cu395  1  0.67028270  0.67864027  0.91618100  1
  C  C396  1  0.71951879  0.97763745  0.74888137  1
  O  O397  1  0.64618378  0.69022039  0.76910781  1
  C  C398  1  0.61855295  0.57567748  0.75045299  1
  C  C399  1  0.64814743  0.62702898  0.78929481  1
  C  C400  1  0.69833722  0.87409566  0.67662045  1
  H  H401  1  0.56333292  0.73395348  0.83031255  1
  C  C402  1  0.59010229  0.59692804  0.69526574  1
  C  C403  1  0.70181873  0.95076868  0.68659654  1
  C  C404  1  0.69499621  0.53719885  0.50904820  1
  C  C405  1  0.52212225  0.88660806  0.59258079  1
  C  C406  1  0.69873751  0.58892226  0.56129361  1
  Cu  Cu407  1  0.70444970  0.74213331  0.74208981  1
  C  C408  1  0.53096705  0.70202115  0.83504429  1
  O  O409  1  0.57501297  0.59626259  0.97422646  1
  H  H410  1  0.67549136  0.58606638  0.60561518  1
  O  O411  1  0.69576096  0.83820369  0.73161967  1
  H  H412  1  0.67670972  0.97659245  0.58400738  1
  C  C413  1  0.73523676  0.64017021  0.55474234  1
  O  O414  1  0.73646670  0.68517177  0.90594399  1
  C  C415  1  0.52032937  0.57265965  0.62181510  1
  O  O416  1  0.70682204  0.68960809  0.65864816  1
  C  C417  1  0.53308627  0.95673180  0.56743829  1
  H  H418  1  0.72298626  0.94096736  0.79277610  1
  C  C419  1  0.53124483  0.93129734  0.71033512  1
  H  H420  1  0.55751681  0.63241637  0.50657055  1
  C  C421  1  0.73611726  0.69682107  0.60765762  1
  N  N422  1  0.53002977  0.91550011  0.77773114  1
  C  C423  1  0.50695561  0.80353892  0.69119891  1
  N  N424  1  0.51575139  0.82927551  0.55123138  1
  H  H425  1  0.53486589  0.94940842  0.81556890  1
  H  H426  1  0.50285744  0.78151224  0.57162690  1
  C  C427  1  0.51769822  0.87285877  0.66589397  1
  H  H428  1  0.52128160  0.86922223  0.80142206  1
  C  C429  1  0.69216696  0.99509670  0.63209613  1
  H  H430  1  0.87638981  0.14132479  0.02043085  1
  C  C431  1  0.95696114  0.40898481  0.15033477  1
  C  C432  1  0.85292599  0.10449867  0.12090964  1
  C  C433  1  0.80601732  0.18505305  0.04635672  1
  C  C434  1  0.84627719  0.14298891  0.05882433  1
  H  H435  1  0.82136953  0.08326255  0.21863925  1
  C  C436  1  0.81818488  0.11076335  0.17164441  1
  O  O437  1  0.90408554  0.43657829  0.27016968  1
  C  C438  1  0.89792432  0.06106082  0.12745878  1
  C  C439  1  0.93384113  0.02683988  0.14186095  1
  C  C440  1  0.78017889  0.15948336  0.16509046  1
  C  C441  1  0.96330207  0.46995626  0.18861171  1
  H  H442  1  0.93040403  0.36794661  0.16425229  1
  C  C443  1  0.97935832  0.32898991  0.05198663  1
  C  C444  1  0.77411463  0.19231707  0.10191402  1
  C  C445  1  0.92957621  0.48173326  0.24996583  1
  O  O446  1  0.76900863  0.37996078  0.06664024  1
  O  O447  1  0.77080246  0.04987786  0.01405628  1
  C  C448  1  0.98684297  0.39645465  0.09288382  1
  O  O449  1  0.94976138  0.28828361  0.07019102  1
  H  H450  1  0.99023866  0.10173100  0.09698328  1
  O  O451  1  0.75282200  0.13542687  0.27291210  1
  C  C452  1  0.75264232  0.00073274  0.04672855  1
  C  C453  1  0.83691770  0.46190738  0.90739928  1
  Cu  Cu454  1  0.77364129  0.35991795  0.97047210  1
  O  O455  1  0.86745573  0.42008940  0.89539691  1
  C  C456  1  0.93318547  0.14661597  0.88699760  1
  O  O457  1  0.79902078  0.45013119  0.94765234  1
  Cu  Cu458  1  0.83364041  0.14275687  0.86540994  1
  O  O459  1  0.89149041  0.12972619  0.90772680  1
  O  O460  1  0.75822285  0.26401294  0.98260487  1
  O  O461  1  0.77666688  0.13779477  0.81596031  1
  C  C462  1  0.96462768  0.09243774  0.85844438  1
  O  O463  1  0.82274804  0.21244980  0.93371037  1
  O  O464  1  0.95004118  0.21070290  0.88912866  1
  C  C465  1  0.79444086  0.21934937  0.98187312  1
  C  C466  1  0.75082624  0.08059816  0.81727697  1
  C  C467  1  0.94927122  0.02366162  0.87681110  1
  H  H468  1  0.91115471  0.01548851  0.90162773  1
  C  C469  1  0.84335422  0.83560315  0.12052396  1
  H  H470  1  0.86562322  0.78969173  0.13136297  1
  N  N471  1  0.96284499  0.72954013  0.07303196  1
  C  C472  1  0.86323587  0.89222454  0.07750491  1
  H  H473  1  0.95896827  0.67933255  0.08676292  1
  C  C474  1  0.95762776  0.86747822  0.04934411  1
  O  O475  1  0.93044702  0.54447907  0.27949162  1
  C  C476  1  0.78536680  0.94888310  0.07747935  1
  N  N477  1  0.93553015  0.91058190  0.24745021  1
  C  C478  1  0.91555513  0.88567934  0.05971385  1
  Cu  Cu479  1  0.87854977  0.58855584  0.32336251  1
  O  O480  1  0.93051968  0.72274802  0.23286451  1
  H  H481  1  0.89554302  0.87409837  0.45025332  1
  H  H482  1  0.93046057  0.74946010  0.05241070  1
  C  C483  1  0.77208210  0.60831316  0.07035144  1
  H  H484  1  0.79462828  0.68249350  0.49558549  1
  H  H485  1  0.93283923  0.87405193  0.28804079  1
  C  C486  1  0.83602829  0.94834862  0.05782690  1
  C  C487  1  0.79614326  0.83611408  0.13905603  1
  O  O488  1  0.79555624  0.72079029  0.19279357  1
  C  C489  1  0.92390743  0.87740757  0.49089254  1
  C  C490  1  0.77446914  0.77380822  0.17754943  1
  H  H491  1  0.80992988  0.50750825  0.05824705  1
  C  C492  1  0.79011012  0.58689496  0.38138910  1
  C  C493  1  0.97222968  0.89415078  0.47028016  1
  C  C494  1  0.94166270  0.70805448  0.29013456  1
  O  O495  1  0.91413818  0.67277289  0.33323309  1
  C  C496  1  0.97568656  0.94996689  0.23145379  1
  O  O497  1  0.83086459  0.62175064  0.37276681  1
  C  C498  1  0.76664118  0.64315719  0.49720327  1
  O  O499  1  0.77813919  0.54578255  0.33680031  1
  H  H500  1  0.97395826  0.70791328  0.41631776  1
  C  C501  1  0.77578552  0.53404441  0.07368238  1
  H  H502  1  0.90575874  0.91435724  0.21612755  1
  C  C503  1  0.81395302  0.64298253  0.03539405  1
  H  H504  1  0.90005398  0.55257142  0.03289880  1
  C  C505  1  0.99801944  0.52190916  0.17052579  1
  C  C506  1  0.75930970  0.59637166  0.44511743  1
  C  C507  1  0.99079502  0.73388037  0.31599597  1
  C  C508  1  0.76679295  0.89477394  0.11797736  1
  H  H509  1  0.84540987  0.99497913  0.02740159  1
  C  C510  1  0.98898693  0.90733523  0.40226487  1
  C  C511  1  0.97654072  0.98892819  0.16933301  1
  N  N512  1  0.92928995  0.56395486  0.00240094  1
  H  H513  1  0.96220101  0.53819002  0.00953566  1
  H  H514  1  0.89783581  0.50004958  0.80969090  1
  C  C515  1  0.80055599  0.64712059  0.84286789  1
  N  N516  1  0.85562071  0.78473343  0.92028142  1
  C  C517  1  0.83674125  0.66196749  0.79658740  1
  H  H518  1  0.82371716  0.77291154  0.94401823  1
  O  O519  1  0.86290598  0.84244459  0.65000342  1
  C  C520  1  0.86589451  0.84989898  0.59027845  1
  C  C521  1  0.97804646  0.70367014  0.88610110  1
  H  H522  1  0.86088751  0.83866108  0.92600685  1
  H  H523  1  0.77221637  0.57922136  0.92170947  1
  H  H524  1  0.84098985  0.71305710  0.77059397  1
  C  C525  1  0.91385278  0.87244776  0.56079245  1
  C  C526  1  0.95273117  0.83043826  0.87870487  1
  C  C527  1  0.91432178  0.61780913  0.74133552  1
  C  C528  1  0.80206663  0.58601013  0.88223655  1
  C  C529  1  0.97400193  0.63703697  0.92053502  1
  O  O530  1  0.75039402  0.75041137  0.81455504  1
  C  C531  1  0.89088859  0.67072468  0.95535653  1
  O  O532  1  0.82966254  0.83020991  0.55105034  1
  C  C533  1  0.87278010  0.60846711  0.78671994  1
  Cu  Cu534  1  0.76946222  0.83521387  0.58247962  1
  C  C535  1  0.95292445  0.61884598  0.71079088  1
  C  C536  1  0.83538140  0.53111275  0.86772392  1
  H  H537  1  0.94301614  0.71027461  0.61484328  1
  C  C538  1  0.92932792  0.61894647  0.95763136  1
  C  C539  1  0.93937945  0.75643571  0.88923508  1
  C  C540  1  0.96413807  0.89241722  0.87323143  1
  C  C541  1  0.99866441  0.88747095  0.58665670  1
  C  C542  1  0.87168296  0.54168000  0.82028838  1
  C  C543  1  0.89395734  0.73754147  0.91942682  1
  C  C544  1  0.76082525  0.69890545  0.85139001  1
  C  C545  1  0.95078334  0.88051386  0.60905880  1
  O  O546  1  0.76878044  0.74060668  0.60510892  1
  H  H547  1  0.94278821  0.87644161  0.66597528  1
  N  N548  1  0.97374568  0.69797729  0.58484831  1
  H  H549  1  0.98185866  0.73783491  0.55134642  1
  C  C550  1  0.98140001  0.96760403  0.86695217  1
  C  C551  1  0.84816507  0.65477025  0.99822992  1
