# generated using pymatgen
data_CuH9C10N2Cl
_symmetry_space_group_name_H-M   'P 1'
_cell_length_a   11.48589714
_cell_length_b   15.93798977
_cell_length_c   15.83209825
_cell_angle_alpha   90.00000000
_cell_angle_beta   90.00000000
_cell_angle_gamma   90.00000000
_symmetry_Int_Tables_number   1
_chemical_formula_structural   CuH9C10N2Cl
_chemical_formula_sum   'Cu8 H72 C80 N16 Cl8'
_cell_volume   2898.25733098
_cell_formula_units_Z   8
loop_
 _symmetry_equiv_pos_site_id
 _symmetry_equiv_pos_as_xyz
  1  'x, y, z'
loop_
 _atom_site_type_symbol
 _atom_site_label
 _atom_site_symmetry_multiplicity
 _atom_site_fract_x
 _atom_site_fract_y
 _atom_site_fract_z
 _atom_site_occupancy
  H  H0  1  0.30636257  0.36975454  0.06542496  1
  C  C1  1  0.08506475  0.30011523  0.19594452  1
  C  C2  1  0.28654815  0.34865250  0.13090830  1
  H  H3  1  0.32879216  0.39483125  0.17349384  1
  N  N4  1  0.09629353  0.40632527  0.08644597  1
  C  C5  1  0.14671078  0.35463818  0.13695294  1
  C  C6  1  0.32898293  0.25512604  0.15106622  1
  H  H7  1  0.29797646  0.21484443  0.09797010  1
  H  H8  1  0.42751595  0.25462236  0.15511920  1
  H  H9  1  0.30111852  0.09616882  0.22878121  1
  C  C10  1  0.14751500  0.24128102  0.24502196  1
  C  C11  1  0.27657016  0.23459594  0.23680441  1
  Cu  Cu12  1  0.15307832  0.48046042  0.00096379  1
  N  N13  1  0.09305081  0.08501145  0.41399831  1
  C  C14  1  0.14998473  0.13356702  0.36615124  1
  H  H15  1  0.31757288  0.19184816  0.40517912  1
  H  H16  1  0.31862888  0.08311149  0.39776289  1
  C  C17  1  0.28439396  0.13876265  0.36678857  1
  C  C18  1  0.08853790  0.18835522  0.30521315  1
  C  C19  1  0.32802764  0.15124863  0.26976550  1
  H  H20  1  0.42692364  0.14814729  0.26049579  1
  H  H21  1  0.31003100  0.28533833  0.28286912  1
  C  C22  1  0.20303809  0.19581843  0.69720547  1
  N  N23  1  0.33563586  0.08633281  0.59253470  1
  N  N24  1  0.18946949  0.09384338  0.58389039  1
  C  C25  1  0.13949202  0.13937714  0.64100041  1
  C  C26  1  0.38752086  0.13832066  0.64123548  1
  C  C27  1  0.32949420  0.20394404  0.69055316  1
  C  C28  1  0.00111959  0.13937056  0.63174090  1
  C  C29  1  0.39969582  0.26542773  0.73182053  1
  Cu  Cu30  1  0.13673487  0.01054089  0.50125707  1
  N  N31  1  0.19942712  0.40374043  0.91418293  1
  C  C32  1  0.39289704  0.37432978  0.84535798  1
  C  C33  1  0.20845925  0.30108392  0.80764784  1
  C  C34  1  0.33304926  0.31105091  0.79430822  1
  C  C35  1  0.14801274  0.34411161  0.87440614  1
  N  N36  1  0.33860272  0.41970170  0.89747772  1
  C  C37  1  0.01563646  0.33083741  0.89422918  1
  H  H38  1  0.00343286  0.27014368  0.92580334  1
  C  C39  1  0.00826556  0.24000990  0.75852743  1
  C  C40  1  0.13906444  0.24926943  0.75251706  1
  H  H41  1  0.05438194  0.55716712  0.13238632  1
  H  H42  1  0.07884850  0.66503124  0.09683207  1
  H  H43  1  0.47461288  0.56682028  0.12522166  1
  Cl  Cl44  1  0.26839441  0.58503111  0.09784780  1
  C  C45  1  0.49955111  0.63040997  0.14550171  1
  C  C46  1  0.02564334  0.62476486  0.14051834  1
  C  C47  1  0.47473312  0.64761535  0.24405699  1
  H  H48  1  0.05981399  0.78426574  0.18562338  1
  C  C49  1  0.06105901  0.65553163  0.23549629  1
  H  H50  1  0.45705151  0.67633289  0.10201653  1
  H  H51  1  0.46774705  0.77934892  0.22308263  1
  C  C52  1  0.02770002  0.74971521  0.24318126  1
  H  H53  1  0.15402394  0.64214646  0.24490809  1
  H  H54  1  0.46500274  0.88315995  0.32162989  1
  H  H55  1  0.07176972  0.93044950  0.37936639  1
  C  C56  1  0.02786878  0.88930188  0.33098331  1
  Cl  Cl57  1  0.26664366  0.88893185  0.41666801  1
  H  H58  1  0.18020263  0.79487662  0.30927717  1
  H  H59  1  0.47736942  0.87041785  0.43546496  1
  H  H60  1  0.04435159  0.91487388  0.26626763  1
  H  H61  1  0.00655674  0.61870197  0.28002608  1
  C  C62  1  0.09004590  0.79590295  0.32242579  1
  C  C63  1  0.47291996  0.74824992  0.35856221  1
  H  H64  1  0.37990751  0.74022566  0.36048837  1
  H  H65  1  0.08423038  0.76732115  0.38473912  1
  H  H66  1  0.37788819  0.63969846  0.25242380  1
  H  H67  1  0.22772046  0.94919487  0.64181541  1
  C  C68  1  0.25626112  0.87926772  0.65981832  1
  H  H69  1  0.21552999  0.82987499  0.61433462  1
  N  N70  1  0.43869455  0.91957385  0.59389535  1
  C  C71  1  0.38915863  0.87492978  0.65118749  1
  C  C72  1  0.45166444  0.81099669  0.70125619  1
  H  H73  1  0.22149466  0.73726431  0.70242855  1
  Cl  Cl74  1  0.01831663  0.91167946  0.60851700  1
  Cu  Cu75  1  0.38346799  0.99856988  0.51548779  1
  H  H76  1  0.21561330  0.59806695  0.90450637  1
  C  C77  1  0.24976526  0.63253958  0.84855695  1
  Cl  Cl78  1  0.01339354  0.60545776  0.90958273  1
  C  C79  1  0.38437839  0.64492925  0.85609778  1
  C  C80  1  0.45270592  0.70608810  0.81096931  1
  N  N81  1  0.43694728  0.59208464  0.90487700  1
  H  H82  1  0.23052466  0.59464936  0.78933737  1
  H  H83  1  0.21961779  0.76565363  0.89694775  1
  H  H84  1  0.09731380  0.73528258  0.83349972  1
  C  C85  1  0.19655665  0.72837655  0.83774291  1
  H  H86  1  0.25984355  0.89929385  0.80233827  1
  H  H87  1  0.12022355  0.86406528  0.76939808  1
  C  C88  1  0.25596022  0.76614961  0.76117583  1
  Cu  Cu89  1  0.39141567  0.50354819  0.97696871  1
  C  C90  1  0.38538088  0.76096199  0.75694758  1
  C  C91  1  0.21559003  0.85626454  0.75581537  1
  C  C92  1  0.76148714  0.38908984  0.15858477  1
  C  C93  1  0.89806313  0.37185793  0.14939406  1
  H  H94  1  0.73247844  0.40204438  0.09198253  1
  C  C95  1  0.95681769  0.30395705  0.19711298  1
  N  N96  1  0.94611366  0.41945108  0.10198359  1
  H  H97  1  0.74282549  0.44556596  0.19652583  1
  H  H98  1  0.68533244  0.26323571  0.13488604  1
  H  H99  1  0.66871864  0.14402176  0.22730451  1
  C  C100  1  0.69817273  0.30599505  0.19195657  1
  H  H101  1  0.60670260  0.32078232  0.21439869  1
  Cl  Cl102  1  0.52000269  0.40179259  0.09058479  1
  Cu  Cu103  1  0.88948937  0.49970717  0.02143837  1
  C  C104  1  0.89995310  0.24461900  0.24829927  1
  C  C105  1  0.76169924  0.11784762  0.35064530  1
  H  H106  1  0.77118355  0.30671940  0.31865951  1
  C  C107  1  0.96461013  0.18757859  0.30078788  1
  N  N108  1  0.94402906  0.08025497  0.40341583  1
  C  C109  1  0.89422956  0.12625247  0.35016679  1
  H  H110  1  0.73075454  0.13697156  0.41355473  1
  Cl  Cl111  1  0.52480684  0.07333853  0.37609018  1
  H  H112  1  0.73536235  0.04887493  0.34628898  1
  H  H113  1  0.61139031  0.20377878  0.31005028  1
  C  C114  1  0.76943912  0.26184048  0.26373715  1
  C  C115  1  0.69449711  0.17964930  0.28248133  1
  H  H116  1  0.56081559  0.09637578  0.58177226  1
  H  H117  1  0.58842839  0.26168207  0.60493325  1
  H  H118  1  0.86226616  0.23321230  0.66223805  1
  Cl  Cl119  1  0.75577032  0.11613326  0.56874904  1
  H  H120  1  0.67896364  0.21539385  0.67803849  1
  C  C121  1  0.52409759  0.12997680  0.64074121  1
  C  C122  1  0.58557867  0.22253343  0.66298300  1
  H  H123  1  0.53123652  0.39645105  0.69642265  1
  H  H124  1  0.55487380  0.08335371  0.69291829  1
  C  C125  1  0.95874084  0.23052178  0.66679099  1
  H  H126  1  0.95996372  0.08407820  0.66591008  1
  H  H127  1  0.98008675  0.13532582  0.56268822  1
  H  H128  1  0.99832377  0.28079409  0.62436975  1
  H  H129  1  0.66822013  0.36168664  0.73287407  1
  C  C130  1  0.52781096  0.26705512  0.73540015  1
  C  C131  1  0.57202138  0.35880125  0.74479236  1
  Cl  Cl132  1  0.77356707  0.39860099  0.90732843  1
  H  H133  1  0.97646028  0.37612481  0.93918786  1
  C  C134  1  0.94800486  0.31889501  0.80442104  1
  H  H135  1  0.58302038  0.34535199  0.88114781  1
  H  H136  1  0.85515245  0.30558166  0.81167219  1
  H  H137  1  0.55377541  0.23870514  0.79749660  1
  C  C138  1  0.53362192  0.38567387  0.83718071  1
  H  H139  1  0.55587323  0.45420112  0.84522773  1
  H  H140  1  0.96070792  0.37770100  0.76374764  1
  H  H141  1  0.99241756  0.18000825  0.79284667  1
  N  N142  1  0.83228588  0.58718427  0.09179230  1
  C  C143  1  0.89088004  0.63738238  0.13845779  1
  C  C144  1  0.70594929  0.69384124  0.19528726  1
  C  C145  1  0.83188627  0.69981196  0.19211641  1
  C  C146  1  0.63856148  0.63809902  0.14154631  1
  N  N147  1  0.68609626  0.59375576  0.08314946  1
  C  C148  1  0.89536451  0.75318447  0.24693939  1
  C  C149  1  0.70663660  0.80328145  0.30075970  1
  N  N150  1  0.69296833  0.90803064  0.41287677  1
  N  N151  1  0.84063231  0.91380507  0.40955865  1
  C  C152  1  0.64475522  0.85738028  0.36104352  1
  C  C153  1  0.89510810  0.87686178  0.34831565  1
  C  C154  1  0.83383325  0.81027655  0.29947594  1
  Cu  Cu155  1  0.89405524  0.99763037  0.48334637  1
  C  C156  1  0.50844025  0.84681624  0.37208434  1
  H  H157  1  0.51637845  0.59972521  0.28628845  1
  H  H158  1  0.51694676  0.70605015  0.40339534  1
  C  C159  1  0.51315793  0.73723528  0.26903606  1
  C  C160  1  0.64033539  0.74334623  0.25482865  1
  H  H161  1  0.80659107  0.91132188  0.59364538  1
  C  C162  1  0.63789000  0.85492712  0.63270595  1
  C  C163  1  0.77012548  0.85016851  0.61478945  1
  N  N164  1  0.58613774  0.91272618  0.58875004  1
  H  H165  1  0.78944175  0.80081587  0.56804047  1
  C  C166  1  0.57749823  0.80586173  0.69492221  1
  C  C167  1  0.82989615  0.83110925  0.70684531  1
  H  H168  1  0.80500970  0.69139455  0.70995532  1
  H  H169  1  0.92527681  0.82324078  0.70142338  1
  C  C170  1  0.77790535  0.74646919  0.74887522  1
  Cu  Cu171  1  0.64029147  0.98329432  0.50027174  1
  H  H172  1  0.79593627  0.65027710  0.95302416  1
  N  N173  1  0.58701939  0.59536331  0.91694290  1
  H  H174  1  0.80526913  0.59176340  0.85305673  1
  C  C175  1  0.58206655  0.70602326  0.80906357  1
  C  C176  1  0.77486741  0.65313812  0.88394331  1
  C  C177  1  0.63839794  0.65437711  0.87292392  1
  C  C178  1  0.84189593  0.73294274  0.83622216  1
  H  H179  1  0.83351688  0.79123548  0.87334346  1
  H  H180  1  0.93444735  0.72321006  0.82599266  1
  Cu  Cu181  1  0.63635283  0.51999518  0.99687114  1
  C  C182  1  0.64756577  0.75483987  0.75150678  1
  H  H183  1  0.80915806  0.88116170  0.75206525  1
