# generated using pymatgen
data_Zn5H9C27O19
_symmetry_space_group_name_H-M   'P 1'
_cell_length_a   9.26647972
_cell_length_b   10.54930441
_cell_length_c   40.13352317
_cell_angle_alpha   90.00000000
_cell_angle_beta   90.00000000
_cell_angle_gamma   90.00000000
_symmetry_Int_Tables_number   1
_chemical_formula_structural   Zn5H9C27O19
_chemical_formula_sum   'Zn20 H36 C108 O76'
_cell_volume   3923.24915815
_cell_formula_units_Z   4
loop_
 _symmetry_equiv_pos_site_id
 _symmetry_equiv_pos_as_xyz
  1  'x, y, z'
loop_
 _atom_site_type_symbol
 _atom_site_label
 _atom_site_symmetry_multiplicity
 _atom_site_fract_x
 _atom_site_fract_y
 _atom_site_fract_z
 _atom_site_occupancy
  O  O0  1  0.42378039  0.27406593  0.13984484  1
  C  C1  1  0.42604571  0.41363420  0.02913203  1
  C  C2  1  0.27363727  0.11932905  0.21495996  1
  C  C3  1  0.24813888  0.36429302  0.17449186  1
  C  C4  1  0.36178849  0.37453993  0.19874910  1
  C  C5  1  0.29189193  0.29649797  0.14368435  1
  Zn  Zn6  1  0.16966716  0.08242379  0.16733720  1
  Zn  Zn7  1  0.44521033  0.24217907  0.09052122  1
  C  C8  1  0.10984125  0.41087673  0.18184262  1
  C  C9  1  0.12505439  0.12554900  0.21583180  1
  O  O10  1  0.35287726  0.41139120  0.00391706  1
  C  C11  1  0.33664122  0.44030602  0.22756971  1
  H  H12  1  0.48132553  0.14795584  0.24520400  1
  C  C13  1  0.04429116  0.15851940  0.24443270  1
  O  O14  1  0.20156425  0.26191468  0.12373826  1
  H  H15  1  0.37510876  0.08721057  0.02602199  1
  O  O16  1  0.37168117  0.38487873  0.05752906  1
  H  H17  1  0.01848634  0.39771902  0.16424673  1
  C  C18  1  0.35704204  0.14671433  0.24419280  1
  C  C19  1  0.43927807  0.10027797  0.00348590  1
  H  H20  1  0.47137954  0.32900183  0.19585470  1
  C  C21  1  0.09516649  0.47855287  0.21133799  1
  C  C22  1  0.23426569  0.14152260  0.49208325  1
  O  O23  1  0.31140067  0.24477278  0.32951564  1
  H  H24  1  0.07347588  0.22347681  0.29551638  1
  C  C25  1  0.12502532  0.19403910  0.27293681  1
  C  C26  1  0.12802110  0.16607454  0.46861506  1
  C  C27  1  0.36288406  0.20678385  0.30316830  1
  H  H28  1  0.34850535  0.15429792  0.48420435  1
  C  C29  1  0.17137435  0.19192418  0.43262156  1
  C  C30  1  0.27607735  0.18624406  0.27221987  1
  O  O31  1  0.30185577  0.18987120  0.42620644  1
  Zn  Zn32  1  0.36923411  0.15825163  0.37644100  1
  O  O33  1  0.07542525  0.22938980  0.41211191  1
  Zn  Zn34  1  0.22371681  0.48157876  0.49009705  1
  O  O35  1  0.49496549  0.16808057  0.30052808  1
  C  C36  1  0.47076728  0.45687707  0.25049804  1
  O  O37  1  0.12718135  0.26794705  0.65435909  1
  O  O38  1  0.14721065  0.36113458  0.70303290  1
  O  O39  1  0.41913684  0.09493184  0.54860930  1
  Zn  Zn40  1  0.26762268  0.29566901  0.61331792  1
  O  O41  1  0.46871640  0.37759090  0.62415517  1
  O  O42  1  0.24999498  0.12170987  0.58509720  1
  C  C43  1  0.19127617  0.11580861  0.52509808  1
  C  C44  1  0.28987968  0.10666610  0.55513038  1
  C  C45  1  0.07999594  0.33642140  0.67642978  1
  C  C46  1  0.07424249  0.45005930  0.56586198  1
  O  O47  1  0.17554552  0.46592428  0.58661532  1
  Zn  Zn48  1  0.31370976  0.46087784  0.73052591  1
  C  C49  1  0.04496679  0.10236396  0.53357779  1
  C  C50  1  0.09023959  0.48401791  0.53055956  1
  H  H51  1  0.01816112  0.08114947  0.56015196  1
  C  C52  1  0.01056530  0.42714096  0.50284319  1
  C  C53  1  0.38050060  0.08366616  0.97108495  1
  C  C54  1  0.40013011  0.44979224  0.85801970  1
  C  C55  1  0.17335306  0.41869270  0.82644853  1
  H  H56  1  0.12615920  0.39644027  0.80310435  1
  C  C57  1  0.32243401  0.40589529  0.82945718  1
  C  C58  1  0.39143618  0.35376699  0.79885841  1
  O  O59  1  0.31010681  0.33504557  0.77433049  1
  C  C60  1  0.22076333  0.04778046  0.96542021  1
  H  H61  1  0.40483639  0.07544149  0.91753430  1
  O  O62  1  0.19570673  0.00084539  0.93636799  1
  C  C63  1  0.09292192  0.47022155  0.85271453  1
  C  C64  1  0.45813061  0.09692278  0.94196330  1
  O  O65  1  0.13609769  0.04921499  0.98772659  1
  C  C66  1  0.31166889  0.49741928  0.88564987  1
  C  C67  1  0.08290558  0.77862318  0.17913022  1
  H  H68  1  0.36098076  0.73924544  0.17806451  1
  C  C69  1  0.46341493  0.77312905  0.03529250  1
  O  O70  1  0.13990272  0.72743317  0.15442520  1
  C  C71  1  0.42902159  0.80270267  0.22778806  1
  C  C72  1  0.18069396  0.79529015  0.20982790  1
  C  C73  1  0.32522278  0.77558901  0.20255906  1
  O  O74  1  0.27909543  0.72745574  0.07091096  1
  C  C75  1  0.31403663  0.73457601  0.04037306  1
  Zn  Zn76  1  0.09892531  0.79222527  0.10174678  1
  C  C77  1  0.14725726  0.84435584  0.24131453  1
  O  O78  1  0.23117893  0.71782980  0.01553552  1
  C  C79  1  0.20936586  0.50382302  0.23389719  1
  H  H80  1  0.04607310  0.99290220  0.11218477  1
  O  O81  1  0.13253623  0.97312778  0.12418030  1
  C  C82  1  0.39757624  0.84805788  0.25991197  1
  O  O83  1  0.27684635  0.86757706  0.46837621  1
  Zn  Zn84  1  0.05093092  0.91357335  0.28352258  1
  C  C85  1  0.24912292  0.87342343  0.26518307  1
  O  O86  1  0.14095522  0.65779774  0.43403328  1
  O  O87  1  0.48187092  0.55764087  0.26569443  1
  H  H88  1  0.20678427  0.56852874  0.25475846  1
  C  C89  1  0.28325315  0.78780761  0.49134287  1
  Zn  Zn90  1  0.23752441  0.83803629  0.41467940  1
  C  C91  1  0.10372951  0.62967841  0.46327654  1
  O  O92  1  0.07575259  0.82102617  0.37618209  1
  O  O93  1  0.34917329  0.95918148  0.38352401  1
  C  C94  1  0.19168918  0.67271790  0.49306935  1
  H  H95  1  0.28365417  0.92695430  0.36692271  1
  O  O96  1  0.04244366  0.97023340  0.33793396  1
  H  H97  1  0.47819047  0.87566657  0.27811260  1
  C  C98  1  0.01131923  0.91514609  0.36536864  1
  C  C99  1  0.18616064  0.60757868  0.32391729  1
  O  O100  1  0.27670379  0.68400045  0.32796590  1
  O  O101  1  0.09619098  0.53149726  0.31950054  1
  C  C102  1  0.15461045  0.61715387  0.52604396  1
  O  O103  1  0.36120677  0.80488136  0.51636492  1
  H  H104  1  0.15660294  0.67152552  0.54981586  1
  O  O105  1  0.15770746  0.60989251  0.72677019  1
  C  C106  1  0.07784385  0.65623358  0.74886883  1
  C  C107  1  0.36459683  0.54922178  0.91697717  1
  C  C108  1  0.12330428  0.70357708  0.78157845  1
  O  O109  1  0.27195141  0.60367669  0.93510293  1
  C  C110  1  0.20429837  0.77554581  0.84595165  1
  H  H111  1  0.23026136  0.79225982  0.87265959  1
  C  C112  1  0.26773107  0.69523282  0.79062586  1
  C  C113  1  0.46375980  0.71638389  0.83257257  1
  C  C114  1  0.06417008  0.79310086  0.83434652  1
  C  C115  1  0.30453225  0.72672855  0.82307352  1
  H  H116  1  0.45105933  0.76042452  0.98112425  1
  C  C117  1  0.01810686  0.75384296  0.80262107  1
  H  H118  1  0.35070583  0.65929007  0.77350101  1
  H  H119  1  0.09305502  0.53131476  0.90372499  1
  O  O120  1  0.01046616  0.84023295  0.88821137  1
  Zn  Zn121  1  0.19960321  0.56612925  0.98494834  1
  C  C122  1  0.16063386  0.50069405  0.88282687  1
  O  O123  1  0.49874266  0.54948812  0.92364511  1
  O  O124  1  0.76835689  0.19035916  0.04386889  1
  O  O125  1  0.56301478  0.12225651  0.06633722  1
  C  C126  1  0.64784034  0.14789326  0.04158926  1
  O  O127  1  0.80095221  0.13903661  0.22771449  1
  C  C128  1  0.58450561  0.12968037  0.00589359  1
  C  C129  1  0.57842603  0.45883796  0.02982872  1
  H  H130  1  0.59503852  0.48098178  0.08524321  1
  C  C131  1  0.64755080  0.49226899  0.05984449  1
  H  H132  1  0.89392049  0.16921806  0.45679170  1
  C  C133  1  0.97941405  0.16181440  0.47610132  1
  H  H134  1  0.56842329  0.14088813  0.43292713  1
  Zn  Zn135  1  0.94286751  0.40182824  0.42679601  1
  H  H136  1  0.87687130  0.12763157  0.34819661  1
  C  C137  1  0.83635832  0.08883643  0.37050421  1
  C  C138  1  0.72628623  0.14718371  0.38953175  1
  C  C139  1  0.66301850  0.10097524  0.41841531  1
  O  O140  1  0.73857644  0.30977409  0.35017976  1
  Zn  Zn141  1  0.67653360  0.29970888  0.29701419  1
  C  C142  1  0.66812388  0.26713403  0.37450516  1
  O  O143  1  0.83632985  0.16854988  0.28045990  1
  O  O144  1  0.54076863  0.29862203  0.38123553  1
  O  O145  1  0.78190671  0.47631409  0.30065743  1
  H  H146  1  0.87764946  0.48665741  0.29479174  1
  C  C147  1  0.88456346  0.15337293  0.25019474  1
  O  O148  1  0.56475580  0.37252880  0.25153712  1
  O  O149  1  0.64558517  0.28544906  0.59717033  1
  C  C150  1  0.84045988  0.33891896  0.64850158  1
  C  C151  1  0.95026773  0.12813676  0.50799298  1
  C  C152  1  0.92350299  0.36815409  0.67631939  1
  O  O153  1  0.73909296  0.03223080  0.53517537  1
  Zn  Zn154  1  0.74951832  0.36133594  0.55692014  1
  C  C155  1  0.86720891  0.43071628  0.70461792  1
  H  H156  1  0.87724550  0.28300430  0.62841831  1
  C  C157  1  0.59574676  0.34267483  0.62254881  1
  C  C158  1  0.69705582  0.37511123  0.65060128  1
  C  C159  1  0.72762628  0.47299918  0.70295828  1
  C  C160  1  0.79013185  0.12594391  0.52001487  1
  O  O161  1  0.95309276  0.41074981  0.57582444  1
  O  O162  1  0.72931056  0.22881026  0.51814680  1
  C  C163  1  0.63480520  0.44514867  0.67636215  1
  H  H164  1  0.93509985  0.43909909  0.72711722  1
  H  H165  1  0.92954061  0.35301979  0.50725733  1
  H  H166  1  0.51750445  0.46325721  0.67653686  1
  H  H167  1  0.78891259  0.15047216  0.98005259  1
  C  C168  1  0.60713229  0.11578755  0.94680525  1
  O  O169  1  0.82787607  0.12552720  0.91806695  1
  O  O170  1  0.64418932  0.05942749  0.88851942  1
  C  C171  1  0.69432746  0.10894595  0.91518928  1
  O  O172  1  0.81510990  0.44374221  0.94556606  1
  H  H173  1  0.58638604  0.44740112  0.97639281  1
  C  C174  1  0.67228265  0.13479996  0.97783913  1
  O  O175  1  0.53749334  0.43642309  0.85937067  1
  O  O176  1  0.52378858  0.33365469  0.79844378  1
  Zn  Zn177  1  0.68173152  0.48689511  0.90186152  1
  O  O178  1  0.87772902  0.45684292  0.82073960  1
  C  C179  1  0.93324013  0.48597483  0.84784541  1
  Zn  Zn180  1  0.66501471  0.49356249  0.80799696  1
  C  C181  1  0.64432185  0.46588346  0.99899671  1
  O  O182  1  0.73018058  0.83715828  0.11356682  1
  O  O183  1  0.79358612  0.56632119  0.11671079  1
  O  O184  1  0.85812408  0.54470912  0.19613446  1
  C  C185  1  0.78932884  0.84346402  0.08652544  1
  H  H186  1  0.86200315  0.89194919  0.02213381  1
  O  O187  1  0.91802921  0.88201342  0.08230680  1
  C  C188  1  0.69572580  0.83208684  0.05575601  1
  C  C189  1  0.75189329  0.85170157  0.02492024  1
  C  C190  1  0.86940908  0.57181869  0.09035891  1
  Zn  Zn191  1  0.79067557  0.70359745  0.15527851  1
  C  C192  1  0.58255286  0.77822633  0.21682650  1
  O  O193  1  0.60796296  0.75162823  0.18667093  1
  O  O194  1  0.93381563  0.58365767  0.24779786  1
  C  C195  1  0.95035482  0.53868299  0.21779953  1
  C  C196  1  0.78716161  0.53595102  0.05941061  1
  O  O197  1  0.67739640  0.78662303  0.23853388  1
  C  C198  1  0.55389226  0.80192153  0.06232829  1
  C  C199  1  0.86042515  0.54742224  0.02896087  1
  O  O200  1  0.95796200  0.81736420  0.17817044  1
  H  H201  1  0.96379768  0.59515623  0.02609429  1
  O  O202  1  0.99359330  0.61366365  0.08853255  1
  H  H203  1  0.52049719  0.80245035  0.08840510  1
  C  C204  1  0.78703062  0.50966917  0.00056895  1
  C  C205  1  0.51884115  0.78242127  0.00261226  1
  C  C206  1  0.84634724  0.52148488  0.45918782  1
  C  C207  1  0.83692590  0.92137397  0.41342043  1
  H  H208  1  0.88453173  0.83152701  0.42510547  1
  Zn  Zn209  1  0.72497150  0.61639253  0.26765731  1
  C  C210  1  0.72804236  0.98778666  0.42814615  1
  O  O211  1  0.71489498  0.82783225  0.47032814  1
  C  C212  1  0.66026598  0.91859678  0.45863444  1
  C  C213  1  0.88760624  0.97482229  0.38336447  1
  O  O214  1  0.73089731  0.50714375  0.46885633  1
  C  C215  1  0.99542436  0.50357279  0.46875845  1
  O  O216  1  0.57015898  0.98515384  0.47628981  1
  O  O217  1  0.62056390  0.67777589  0.58950628  1
  C  C218  1  0.60259513  0.61109344  0.56703526  1
  Zn  Zn219  1  0.53353024  0.93983022  0.52384533  1
  O  O220  1  0.58348466  0.53582875  0.54457955  1
  O  O221  1  0.50819556  0.55584328  0.72693650  1
  C  C222  1  0.64335205  0.54152971  0.72948534  1
  H  H223  1  0.94224454  0.65401236  0.71590236  1
  O  O224  1  0.93733763  0.68280237  0.74010664  1
  Zn  Zn225  1  0.65591727  0.85673843  0.88563367  1
  C  C226  1  0.65936157  0.82128612  0.99803626  1
  O  O227  1  0.62426940  0.81722153  0.93877267  1
  O  O228  1  0.54976543  0.67541409  0.81169118  1
  H  H229  1  0.90414802  0.77178042  0.79557052  1
  C  C230  1  0.70731684  0.83519508  0.96253915  1
  O  O231  1  0.84101418  0.86516445  0.95885755  1
  O  O232  1  0.82337402  0.84388553  0.85412966  1
  O  O233  1  0.85436798  0.52664169  0.87100113  1
  Zn  Zn234  1  0.97041215  0.97977359  0.93084959  1
  C  C235  1  0.87032110  0.51171088  0.96813595  1
  O  O236  1  0.70822028  0.54915455  0.75635542  1
  O  O237  1  0.50043676  0.74197152  0.86190175  1
  C  C238  1  0.95921088  0.83177828  0.85996103  1
  O  O239  1  0.98717201  0.56662003  0.96326725  1
