# generated using pymatgen
data_ZnH2(C3O2)2
_symmetry_space_group_name_H-M   'P 1'
_cell_length_a   20.66212467
_cell_length_b   11.86266287
_cell_length_c   21.33860014
_cell_angle_alpha   90.00000000
_cell_angle_beta   90.00000000
_cell_angle_gamma   90.00000000
_symmetry_Int_Tables_number   1
_chemical_formula_structural   ZnH2(C3O2)2
_chemical_formula_sum   'Zn24 H48 C144 O96'
_cell_volume   5230.25774050
_cell_formula_units_Z   24
loop_
 _symmetry_equiv_pos_site_id
 _symmetry_equiv_pos_as_xyz
  1  'x, y, z'
loop_
 _atom_site_type_symbol
 _atom_site_label
 _atom_site_symmetry_multiplicity
 _atom_site_fract_x
 _atom_site_fract_y
 _atom_site_fract_z
 _atom_site_occupancy
  Zn  Zn0  1  0.02743991  0.47354549  0.19181795  1
  C  C1  1  0.12974035  0.29957826  0.04660803  1
  C  C2  1  0.11980325  0.33465252  0.11344722  1
  H  H3  1  0.13966743  0.13004903  0.07903962  1
  C  C4  1  0.13482252  0.18103698  0.03770417  1
  H  H5  1  0.45345226  0.43220456  0.20749784  1
  O  O6  1  0.13648699  0.26819667  0.15552251  1
  O  O7  1  0.09867265  0.42892105  0.12609079  1
  H  H8  1  0.48678963  0.14880930  0.16503408  1
  O  O9  1  0.48284461  0.20344633  0.13329150  1
  C  C10  1  0.49664209  0.47931022  0.18738052  1
  Zn  Zn11  1  0.20068139  0.31037446  0.23242758  1
  C  C12  1  0.10436541  0.29902634  0.41814233  1
  C  C13  1  0.09997182  0.39686286  0.38407686  1
  C  C14  1  0.28067277  0.20741209  0.33468254  1
  H  H15  1  0.26670359  0.15949138  0.46024771  1
  H  H16  1  0.21391477  0.05968550  0.26972413  1
  C  C17  1  0.23975697  0.09677536  0.42886601  1
  C  C18  1  0.09553334  0.38792092  0.31282139  1
  O  O19  1  0.11135408  0.29752819  0.28855433  1
  C  C20  1  0.10924651  0.30747674  0.48398283  1
  O  O21  1  0.30861908  0.27080344  0.36843557  1
  C  C22  1  0.20467828  0.00484708  0.45187426  1
  C  C23  1  0.20785266  0.04286225  0.32149579  1
  C  C24  1  0.24140761  0.11092863  0.36293350  1
  H  H25  1  0.09857829  0.21577918  0.39443036  1
  O  O26  1  0.07169397  0.46782219  0.28289467  1
  O  O27  1  0.27455226  0.22451548  0.27502916  1
  O  O28  1  0.23568612  0.48036191  0.25326805  1
  O  O29  1  0.47869795  0.03648446  0.49857990  1
  C  C30  1  0.46183555  0.02022465  0.44860861  1
  H  H31  1  0.26546787  0.46670571  0.49041501  1
  C  C32  1  0.31868129  0.48502879  0.49022286  1
  O  O33  1  0.44659639  0.00170425  0.39566168  1
  H  H34  1  0.09131795  0.12498346  0.67926760  1
  H  H35  1  0.47231020  0.40833975  0.54349982  1
  O  O36  1  0.21156437  0.17169314  0.70689043  1
  C  C37  1  0.07076807  0.19412255  0.70574987  1
  Zn  Zn38  1  0.23793020  0.18698448  0.60993281  1
  O  O39  1  0.27556665  0.33567747  0.58181965  1
  O  O40  1  0.13242354  0.20936718  0.58090286  1
  C  C41  1  0.43089082  0.44940841  0.51976416  1
  C  C42  1  0.33835371  0.34502215  0.57499693  1
  H  H43  1  0.11021687  0.41358601  0.56354533  1
  C  C44  1  0.00461079  0.21117020  0.70736178  1
  O  O45  1  0.37488639  0.29146574  0.60577926  1
  O  O46  1  0.24392879  0.03939086  0.55164096  1
  O  O47  1  0.08337120  0.11552613  0.50489645  1
  C  C48  1  0.36378552  0.42723413  0.52657565  1
  C  C49  1  0.11021425  0.41196425  0.51210706  1
  C  C50  1  0.11067798  0.20344616  0.52479560  1
  H  H51  1  0.40189722  0.31899151  0.71402070  1
  O  O52  1  0.49504521  0.23250130  0.73596223  1
  C  C53  1  0.11391980  0.25799720  0.74135382  1
  C  C54  1  0.18453677  0.23494182  0.74154497  1
  C  C55  1  0.01893070  0.35718805  0.78291367  1
  H  H56  1  0.13107395  0.17211303  0.87828407  1
  C  C57  1  0.11826473  0.32406795  0.93582995  1
  C  C58  1  0.08579285  0.34098832  0.78122990  1
  C  C59  1  0.12885169  0.20933205  0.92542958  1
  C  C60  1  0.13514475  0.13876341  0.97755745  1
  H  H61  1  0.11587644  0.39401988  0.81204062  1
  C  C62  1  0.47438103  0.30721809  0.76633494  1
  C  C63  1  0.14050241  0.01224320  0.97068934  1
  O  O64  1  0.41613396  0.36753676  0.75011820  1
  H  H65  1  0.26498317  0.26762307  0.78596557  1
  O  O66  1  0.21572022  0.29159080  0.78612964  1
  C  C67  1  0.47906176  0.45653481  0.85370600  1
  C  C68  1  0.11925042  0.36962893  0.99603130  1
  O  O69  1  0.02921145  0.75624075  0.10645210  1
  C  C70  1  0.23473975  0.62976746  0.17639688  1
  C  C71  1  0.23824874  0.74333077  0.08666951  1
  C  C72  1  0.16862126  0.63990545  0.18147073  1
  C  C73  1  0.26722031  0.55090173  0.22643463  1
  C  C74  1  0.06687570  0.71427356  0.14612511  1
  H  H75  1  0.32682632  0.68494471  0.13333205  1
  H  H76  1  0.13917674  0.59266056  0.21676222  1
  C  C77  1  0.17241846  0.76161964  0.08764806  1
  O  O78  1  0.04558749  0.65421108  0.18956951  1
  C  C79  1  0.27576548  0.78455819  0.03381616  1
  C  C80  1  0.27234011  0.68316162  0.13323647  1
  C  C81  1  0.44878156  0.92530032  0.17921952  1
  C  C82  1  0.13886143  0.71313815  0.13718982  1
  Zn  Zn83  1  0.02764870  0.89448092  0.04706613  1
  O  O84  1  0.32600882  0.57007348  0.23230773  1
  C  C85  1  0.44101879  0.94562389  0.11623710  1
  H  H86  1  0.39265073  0.94989767  0.09419037  1
  O  O87  1  0.33025273  0.92005314  0.19964956  1
  C  C88  1  0.38444594  0.90510677  0.21747369  1
  H  H89  1  0.14504960  0.81294691  0.05227932  1
  O  O90  1  0.33648134  0.76871969  0.03268111  1
  C  C91  1  0.49804110  0.95796578  0.08154547  1
  O  O92  1  0.12267791  0.96283404  0.01937858  1
  O  O93  1  0.13660978  0.90629581  0.24294506  1
  C  C94  1  0.49546069  0.96587971  0.01137587  1
  O  O95  1  0.45174370  0.60167233  0.29687872  1
  O  O96  1  0.39435451  0.86865141  0.27261436  1
  C  C97  1  0.44879670  0.53575321  0.47797410  1
  H  H98  1  0.13728938  0.87094341  0.43207618  1
  Zn  Zn99  1  0.36153692  0.70532038  0.29366344  1
  O  O100  1  0.31040699  0.70742361  0.37350277  1
  O  O101  1  0.11108412  0.79277862  0.31923614  1
  C  C102  1  0.16784595  0.93816189  0.41132989  1
  Zn  Zn103  1  0.04082414  0.75624241  0.38590715  1
  C  C104  1  0.40777015  0.59857888  0.44076707  1
  O  O105  1  0.09833130  0.71323122  0.46500573  1
  H  H106  1  0.42476688  0.67081436  0.41497094  1
  C  C107  1  0.29323423  0.62179427  0.40814056  1
  C  C108  1  0.34367898  0.56495011  0.44916026  1
  H  H109  1  0.10532928  0.57670698  0.38162618  1
  C  C110  1  0.17160907  0.95561317  0.34641536  1
  C  C111  1  0.13692008  0.88414731  0.29828572  1
  O  O112  1  0.23717169  0.59409598  0.41268129  1
  C  C113  1  0.10108001  0.50287355  0.40994687  1
  C  C114  1  0.10645549  0.51023761  0.47625287  1
  O  O115  1  0.11101770  0.64545507  0.55783589  1
  C  C116  1  0.32609559  0.71024706  0.60812174  1
  H  H117  1  0.27290139  0.76334815  0.72641202  1
  H  H118  1  0.44337851  0.78505132  0.61052671  1
  O  O119  1  0.12636036  0.79593331  0.69202735  1
  O  O120  1  0.26626830  0.68200698  0.62311088  1
  C  C121  1  0.42066407  0.80516955  0.65255484  1
  C  C122  1  0.35730906  0.76864905  0.66349070  1
  C  C123  1  0.45388407  0.86391867  0.69811013  1
  C  C124  1  0.32407317  0.78556516  0.71804858  1
  O  O125  1  0.35278618  0.68875948  0.55874738  1
  O  O126  1  0.17015581  0.90907547  0.54817884  1
  Zn  Zn127  1  0.17985529  0.75733793  0.59694834  1
  C  C128  1  0.08748512  0.87428908  0.70467167  1
  O  O129  1  0.07672324  0.94926603  0.66415007  1
  C  C130  1  0.10672274  0.63104379  0.50100873  1
  C  C131  1  0.20676883  0.98350860  0.52084296  1
  Zn  Zn132  1  0.05904438  0.98738053  0.56667544  1
  O  O133  1  0.26773578  0.82022074  0.83024177  1
  C  C134  1  0.03726265  0.80926618  0.86622400  1
  H  H135  1  0.45288691  0.91188647  0.79428405  1
  O  O136  1  0.43798657  0.95646877  0.98649268  1
  O  O137  1  0.35634665  0.89547478  0.87106903  1
  Zn  Zn138  1  0.20703221  0.80312035  0.90923561  1
  O  O139  1  0.43234168  0.66388632  0.90567302  1
  Zn  Zn140  1  0.39423027  0.80126113  0.95434892  1
  C  C141  1  0.06103251  0.75170053  0.92245918  1
  C  C142  1  0.04821270  0.87642834  0.76307906  1
  C  C143  1  0.06856989  0.80044859  0.81012152  1
  O  O144  1  0.03367841  0.76794688  0.97315364  1
  C  C145  1  0.32647074  0.85172301  0.82607796  1
  H  H146  1  0.10773279  0.73739130  0.79734199  1
  O  O147  1  0.11425840  0.69256781  0.91706431  1
  C  C148  1  0.42329818  0.88283493  0.75655711  1
  O  O149  1  0.27607389  0.54244073  0.81145491  1
  C  C150  1  0.36052790  0.84247379  0.76471809  1
  Zn  Zn151  1  0.10440510  0.50844399  0.93842069  1
  O  O152  1  0.25185231  0.85739915  0.99784302  1
  O  O153  1  0.25421539  0.60801318  0.91288827  1
  C  C154  1  0.26634039  0.57576372  0.86101625  1
  C  C155  1  0.47871933  0.61615002  0.93564367  1
  H  H156  1  0.43764300  0.50049090  0.83398136  1
  O  O157  1  0.15470958  0.96007609  0.92244839  1
  O  O158  1  0.49961173  0.66218156  0.98333621  1
  O  O159  1  0.02447276  0.51237347  0.85855585  1
  Zn  Zn160  1  0.59643325  0.30696034  0.06833540  1
  H  H161  1  0.68612336  0.07179822  0.05362488  1
  C  C162  1  0.78372660  0.00833696  0.07870657  1
  C  C163  1  0.88111423  0.11147741  0.05982159  1
  C  C164  1  0.77153164  0.18650179  0.03582771  1
  C  C165  1  0.95421629  0.11289460  0.06639394  1
  C  C166  1  0.59857925  0.46528487  0.11460846  1
  O  O167  1  0.99183842  0.18995300  0.05308652  1
  C  C168  1  0.73894243  0.08636524  0.05421525  1
  C  C169  1  0.53738879  0.40869705  0.13852711  1
  O  O170  1  0.57628489  0.22787269  0.19099098  1
  H  H171  1  0.76151045  0.45558565  0.20314158  1
  C  C172  1  0.84065083  0.19825960  0.03906216  1
  C  C173  1  0.54201057  0.27985923  0.15425489  1
  O  O174  1  0.84541757  0.42903463  0.12321133  1
  H  H175  1  0.67694952  0.14248879  0.22369281  1
  H  H176  1  0.86247254  0.27399612  0.01530643  1
  O  O177  1  0.97861249  0.02198109  0.09067336  1
  C  C178  1  0.73610735  0.27690442  0.00547147  1
  C  C179  1  0.88257177  0.46517887  0.16720877  1
  C  C180  1  0.85039110  0.01043321  0.08321273  1
  C  C181  1  0.79238626  0.48504899  0.24235831  1
  O  O182  1  0.94064440  0.47942679  0.15855654  1
  Zn  Zn183  1  0.80352469  0.49747902  0.04326129  1
  C  C184  1  0.85608117  0.49811562  0.22945463  1
  H  H185  1  0.74022080  0.38921910  0.41111198  1
  C  C186  1  0.69419484  0.25692762  0.46695635  1
  O  O187  1  0.65761768  0.44791135  0.27545180  1
  Zn  Zn188  1  0.63006396  0.27771429  0.27272109  1
  C  C189  1  0.66903794  0.19419034  0.41238971  1
  C  C190  1  0.73138694  0.36242885  0.45901282  1
  O  O191  1  0.62630733  0.23852156  0.38102570  1
  O  O192  1  0.69569400  0.10131050  0.40480913  1
  O  O193  1  0.70254110  0.16075357  0.26297364  1
  Zn  Zn194  1  0.69893128  0.01156996  0.31492042  1
  C  C195  1  0.69422972  0.49875152  0.31204151  1
  O  O196  1  0.65702827  0.16484069  0.66331718  1
  H  H197  1  0.77277941  0.39539615  0.62187050  1
  O  O198  1  0.90307057  0.16776233  0.67106064  1
  C  C199  1  0.96023837  0.15392900  0.65925381  1
  C  C200  1  0.75406036  0.43045733  0.51636445  1
  C  C201  1  0.71916415  0.26095167  0.58744090  1
  H  H202  1  0.68636909  0.10879786  0.52901986  1
  C  C203  1  0.76150939  0.35771494  0.57529502  1
  C  C204  1  0.69314579  0.20084518  0.52891943  1
  C  C205  1  0.71008512  0.21454136  0.65116151  1
  O  O206  1  0.75725626  0.22230553  0.68675900  1
  Zn  Zn207  1  0.66195069  0.37438149  0.53496509  1
  Zn  Zn208  1  0.82151567  0.08069447  0.72530692  1
  H  H209  1  0.98285864  0.00860970  0.73067232  1
  C  C210  1  0.97789656  0.29344044  0.74669155  1
  O  O211  1  0.97934027  0.09592172  0.61450614  1
  H  H212  1  0.92598577  0.30725978  0.74308593  1
  O  O213  1  0.87692892  0.49000587  0.64887761  1
  C  C214  1  0.55567036  0.44948187  0.93714613  1
  O  O215  1  0.70303427  0.07243264  0.86425121  1
  C  C216  1  0.58261890  0.35515395  0.90588604  1
  Zn  Zn217  1  0.63419346  0.20332991  0.88041400  1
  C  C218  1  0.55797167  0.30523862  0.85323482  1
  O  O219  1  0.89177102  0.02981494  0.89606157  1
  O  O220  1  0.88677391  0.09876382  0.80232464  1
  O  O221  1  0.72648629  0.02877543  0.76588830  1
  O  O222  1  0.93104341  0.44641415  0.83334793  1
  H  H223  1  0.57936699  0.48094546  0.97826731  1
  C  C224  1  0.91079257  0.03444251  0.84325042  1
  C  C225  1  0.99209916  0.44755678  0.82680238  1
  C  C226  1  0.50344561  0.35868207  0.82532403  1
  O  O227  1  0.76700417  0.36319168  0.98831273  1
  C  C228  1  0.72505437  0.00635780  0.82456066  1
  C  C229  1  0.64975688  0.48761621  0.80447984  1
  O  O230  1  0.66563049  0.39467787  0.79705020  1
  O  O231  1  0.67654206  0.26766067  0.99904131  1
  C  C232  1  0.56610365  0.93718124  0.17055589  1
  Zn  Zn233  1  0.52921081  0.58911477  0.11537497  1
  O  O234  1  0.67614736  0.97117732  0.16537019  1
  C  C235  1  0.56044290  0.95378333  0.10490639  1
  C  C236  1  0.63120720  0.93793133  0.20018227  1
  O  O237  1  0.71322354  0.68917421  0.13873142  1
  H  H238  1  0.60300125  0.96148400  0.07424678  1
  O  O239  1  0.81813104  0.80321261  0.03340975  1
  H  H240  1  0.88087940  0.93922791  0.10168452  1
  C  C241  1  0.59170270  0.62144956  0.19439183  1
  O  O242  1  0.71003697  0.57380000  0.06083561  1
  Zn  Zn243  1  0.74310223  0.86405151  0.10690135  1
  H  H244  1  0.61197196  0.69442084  0.21726975  1
  C  C245  1  0.68726929  0.60907084  0.11078132  1
  C  C246  1  0.62384483  0.57083327  0.13795023  1
  C  C247  1  0.52423954  0.58192931  0.21296385  1
  C  C248  1  0.50869207  0.91626295  0.20459649  1
  O  O249  1  0.72918543  0.85906314  0.35932601  1
  O  O250  1  0.97184509  0.88351655  0.42236627  1
  H  H251  1  0.78363070  0.58011075  0.39378143  1
  O  O252  1  0.54181603  0.70087536  0.29856660  1
  C  C253  1  0.80456244  0.55649455  0.34704895  1
  C  C254  1  0.87180914  0.56411457  0.33621917  1
  C  C255  1  0.91839103  0.59773479  0.38600019  1
  O  O256  1  0.53768170  0.65147462  0.44395666  1
  O  O257  1  0.89519792  0.63163771  0.43856448  1
  O  O258  1  0.97687169  0.61177779  0.37416740  1
  Zn  Zn259  1  0.81930651  0.57523772  0.49197424  1
  C  C260  1  0.76987226  0.85763340  0.46085795  1
  C  C261  1  0.50208718  0.63416831  0.27203435  1
  O  O262  1  0.66807781  0.77426362  0.42988271  1
  Zn  Zn263  1  0.60591916  0.67587363  0.37183971  1
  H  H264  1  0.84117034  0.88114355  0.39307370  1
  C  C265  1  0.83116806  0.88326330  0.44160209  1
  C  C266  1  0.71787792  0.82727244  0.41481156  1
  C  C267  1  0.94858633  0.89790730  0.47531248  1
  O  O268  1  0.67060093  0.53750534  0.36254271  1
  C  C269  1  0.89860304  0.53427279  0.27771857  1
  H  H270  1  0.95015508  0.54724954  0.26785255  1
  C  C271  1  0.76528655  0.51458206  0.30106353  1
  C  C272  1  0.52104074  0.56801458  0.47788603  1
  C  C273  1  0.87826323  0.89555145  0.48941396  1
  H  H274  1  0.51483805  0.89342004  0.25552153  1
  O  O275  1  0.64269582  0.90161650  0.25402110  1
  O  O276  1  0.71889044  0.87756686  0.64657566  1
  C  C277  1  0.79746845  0.88498157  0.56898220  1
  C  C278  1  0.72751016  0.55188134  0.52560317  1
  O  O279  1  0.70295226  0.61682907  0.55863659  1
  O  O280  1  0.81978996  0.91646445  0.67749091  1
  O  O281  1  0.55097022  0.87805822  0.64019793  1
  C  C282  1  0.52415017  0.90119258  0.68961985  1
  H  H283  1  0.89919163  0.92247476  0.58784457  1
  H  H284  1  0.70017517  0.84458829  0.53731442  1
  C  C285  1  0.86217157  0.90464516  0.55251714  1
  C  C286  1  0.77756063  0.89465198  0.63628768  1
  Zn  Zn287  1  0.65081254  0.98833759  0.69186882  1
  O  O288  1  0.55872760  0.51200195  0.50619440  1
  C  C289  1  0.75191174  0.85633183  0.52362527  1
  O  O290  1  0.55865130  0.94740175  0.73208847  1
  O  O291  1  0.98451345  0.90266591  0.52247063  1
  O  O292  1  0.95032948  0.62091397  0.68817885  1
  C  C293  1  0.91319810  0.55733108  0.66765498  1
  H  H294  1  0.76174998  0.84277276  0.74565285  1
  C  C295  1  0.80575549  0.77919454  0.92345934  1
  C  C296  1  0.76983512  0.87695761  0.90618949  1
  C  C297  1  0.81285956  0.73113968  0.81190614  1
  C  C298  1  0.75574349  0.89832915  0.84367838  1
  C  C299  1  0.99641125  0.95012700  0.77005407  1
  C  C300  1  0.82717219  0.71369730  0.87325770  1
  C  C301  1  0.77324164  0.82293550  0.79588863  1
  H  H302  1  0.75659206  0.93381776  0.94455369  1
  H  H303  1  0.95429073  0.88730999  0.91870053  1
  C  C304  1  0.98215413  0.87936745  0.87512675  1
  Zn  Zn305  1  0.87277357  0.59040552  0.82101107  1
  O  O306  1  0.63397921  0.57978014  0.81344755  1
  C  C307  1  0.96364887  0.94921154  0.82684775  1
  O  O308  1  0.54341389  0.97508574  0.97874030  1
  C  C309  1  0.50501762  0.50627261  0.90776496  1
  C  C310  1  0.82175165  0.74063664  0.98805363  1
  O  O311  1  0.84060331  0.63954013  0.99515566  1
