# generated using pymatgen
data_CuH5C12N3O4
_symmetry_space_group_name_H-M   'P 1'
_cell_length_a   24.26972172
_cell_length_b   24.55684078
_cell_length_c   15.21683827
_cell_angle_alpha   90.00000000
_cell_angle_beta   90.00000000
_cell_angle_gamma   90.00000000
_symmetry_Int_Tables_number   1
_chemical_formula_structural   CuH5C12N3O4
_chemical_formula_sum   'Cu24 H120 C288 N72 O96'
_cell_volume   9069.04832069
_cell_formula_units_Z   24
loop_
 _symmetry_equiv_pos_site_id
 _symmetry_equiv_pos_as_xyz
  1  'x, y, z'
loop_
 _atom_site_type_symbol
 _atom_site_label
 _atom_site_symmetry_multiplicity
 _atom_site_fract_x
 _atom_site_fract_y
 _atom_site_fract_z
 _atom_site_occupancy
  Cu  Cu0  1  0.19714354  0.48148281  0.08558987  1
  H  H1  1  0.18284092  0.13452102  0.26663731  1
  C  C2  1  0.21933672  0.19894848  0.18271343  1
  N  N3  1  0.11501375  0.49035419  0.20974356  1
  H  H4  1  0.06898578  0.12468587  0.37608264  1
  N  N5  1  0.08205118  0.36476975  0.20809637  1
  C  C6  1  0.05071543  0.19212020  0.28254554  1
  C  C7  1  0.00550869  0.22272828  0.24726376  1
  C  C8  1  0.12713034  0.24084546  0.23963489  1
  N  N9  1  0.10471349  0.19767651  0.26479023  1
  C  C10  1  0.18038173  0.24533252  0.20311782  1
  N  N11  1  0.12087476  0.38048062  0.16030136  1
  N  N12  1  0.13417407  0.45730877  0.15477597  1
  H  H13  1  0.24155035  0.37775636  0.35043439  1
  H  H14  1  0.09348221  0.27205277  0.24038055  1
  H  H15  1  0.20374992  0.32602551  0.38342746  1
  C  C16  1  0.03669025  0.14975669  0.34356836  1
  H  H17  1  0.01483835  0.25933957  0.20874974  1
  N  N18  1  0.24712696  0.29335569  0.48232875  1
  O  O19  1  0.04532226  0.25718492  0.06486103  1
  H  H20  1  0.06679369  0.05881424  0.24241292  1
  C  C21  1  0.04347614  0.27787320  0.49295765  1
  C  C22  1  0.03546454  0.35820971  0.24824733  1
  H  H23  1  0.12627439  0.34194662  0.34278785  1
  C  C24  1  0.03729216  0.33022211  0.33647959  1
  C  C25  1  0.21809000  0.14587169  0.22063804  1
  C  C26  1  0.08951912  0.32441210  0.37171730  1
  C  C27  1  0.19970863  0.30005216  0.44431523  1
  N  N28  1  0.19633506  0.29575561  0.17794126  1
  C  C29  1  0.09234940  0.29376181  0.45251844  1
  C  C30  1  0.07359266  0.01873880  0.26988395  1
  N  N31  1  0.19297719  0.34578640  0.17070949  1
  N  N32  1  0.16889978  0.03560689  0.26512777  1
  H  H33  1  0.12284994  0.32861726  0.04227506  1
  C  C34  1  0.22002876  0.01909796  0.27247245  1
  C  C35  1  0.14878708  0.28000484  0.47862028  1
  O  O36  1  0.00882997  0.07760255  0.47552250  1
  C  C37  1  0.07838954  0.22545268  0.01617388  1
  O  O38  1  0.07039588  0.17827567  0.00376342  1
  C  C39  1  0.21294268  0.29718681  0.87050931  1
  H  H40  1  0.04359428  0.25012889  0.55092957  1
  H  H41  1  0.06015889  0.46090150  0.93943457  1
  N  N42  1  0.15269531  0.24228162  0.54932753  1
  O  O43  1  0.20664207  0.16935697  0.76819729  1
  N  N44  1  0.22196868  0.37165014  0.97076788  1
  O  O45  1  0.22521617  0.12497334  0.60410856  1
  C  C46  1  0.06773035  0.13026900  0.75758589  1
  H  H47  1  0.20159262  0.39078178  0.84410256  1
  C  C48  1  0.19064242  0.24733683  0.85538673  1
  C  C49  1  0.21673620  0.21930661  0.77936514  1
  C  C50  1  0.22838182  0.40321049  0.89922185  1
  O  O51  1  0.09853130  0.16778551  0.72442039  1
  C  C52  1  0.14739624  0.21979808  0.90315046  1
  N  N53  1  0.18233200  0.22454748  0.60710435  1
  C  C54  1  0.19167983  0.32626511  0.94665864  1
  H  H55  1  0.13591406  0.17600412  0.89531658  1
  C  C56  1  0.00582439  0.13516205  0.77635328  1
  Cu  Cu57  1  0.16263105  0.15166077  0.66948261  1
  O  O58  1  0.08021302  0.08387161  0.76597011  1
  C  C59  1  0.12489228  0.25228148  0.96804455  1
  C  C60  1  0.14444218  0.30435730  0.98994006  1
  C  C61  1  0.04560483  0.49866119  0.91882632  1
  O  O62  1  0.14914351  0.49152376  0.98923200  1
  H  H63  1  0.24936936  0.31297429  0.83484599  1
  C  C64  1  0.16330137  0.57600177  0.20583846  1
  H  H65  1  0.17425852  0.61728134  0.23466732  1
  H  H66  1  0.14908558  0.60565561  0.37432464  1
  C  C67  1  0.10399096  0.59833015  0.37290401  1
  C  C68  1  0.06625030  0.62341352  0.42890320  1
  C  C69  1  0.08346612  0.55883775  0.31249685  1
  O  O70  1  0.06940116  0.82701677  0.37672539  1
  O  O71  1  0.22512458  0.75806194  0.21456894  1
  C  C72  1  0.02958878  0.98361280  0.28738784  1
  O  O73  1  0.11481721  0.76468579  0.09220330  1
  C  C74  1  0.12059380  0.54144158  0.23731980  1
  H  H75  1  0.22361790  0.98022695  0.30692625  1
  C  C76  1  0.04054822  0.93400966  0.32476801  1
  H  H77  1  0.18945839  0.67417504  0.17686426  1
  C  C78  1  0.10512470  0.86021836  0.37392934  1
  C  C79  1  0.14186639  0.94675395  0.32311261  1
  O  O80  1  0.15788502  0.84567071  0.39041621  1
  C  C81  1  0.09606648  0.91805040  0.34071510  1
  H  H82  1  0.18320057  0.93128997  0.33358615  1
  N  N83  1  0.19358024  0.55888395  0.13888402  1
  C  C84  1  0.23188644  0.60002499  0.12212299  1
  C  C85  1  0.22825471  0.65525151  0.15402140  1
  Cu  Cu86  1  0.19550571  0.80153421  0.31214325  1
  C  C87  1  0.02905995  0.53704973  0.31637745  1
  H  H88  1  0.21714683  0.80288203  0.04337148  1
  C  C89  1  0.00900858  0.60645213  0.43068703  1
  C  C90  1  0.12137299  0.73640036  0.03247843  1
  C  C91  1  0.08129697  0.66919639  0.49067807  1
  C  C92  1  0.12751479  0.99995588  0.28677892  1
  H  H93  1  0.01448576  0.50445075  0.27219733  1
  H  H94  1  0.00649976  0.90851881  0.34769055  1
  N  N95  1  0.23032406  0.62987103  0.51533907  1
  C  C96  1  0.18108527  0.69210466  0.92270186  1
  C  C97  1  0.06649258  0.59483872  0.89091224  1
  C  C98  1  0.21959043  0.77068129  0.99181537  1
  H  H99  1  0.06141432  0.74749245  0.56503328  1
  O  O100  1  0.03487826  0.69103068  0.82729563  1
  N  N101  1  0.23083806  0.64147612  0.81401323  1
  H  H102  1  0.14438568  0.66489458  0.91201175  1
  H  H103  1  0.09267993  0.62893764  0.88966635  1
  H  H104  1  0.23016741  0.69338118  0.72174271  1
  C  C105  1  0.08022094  0.54294978  0.91912142  1
  N  N106  1  0.23743719  0.61247153  0.59108218  1
  C  C107  1  0.17592736  0.73468774  0.98088733  1
  Cu  Cu108  1  0.03391149  0.74380839  0.91565225  1
  C  C109  1  0.01350595  0.60161173  0.85587967  1
  O  O110  1  0.17252891  0.57139417  0.93484790  1
  C  C111  1  0.13895933  0.53750312  0.95320455  1
  O  O112  1  0.08077689  0.70943782  0.99046381  1
  C  C113  1  0.22848983  0.68741624  0.86760347  1
  C  C114  1  0.04748078  0.70854157  0.53881935  1
  N  N115  1  0.18397277  0.68733821  0.51668294  1
  C  C116  1  0.23200628  0.64895338  0.73312452  1
  H  H117  1  0.24901760  0.55738074  0.84858631  1
  C  C118  1  0.23999918  0.60169938  0.67529640  1
  N  N119  1  0.13530774  0.67607111  0.50327942  1
  O  O120  1  0.27182557  0.41226918  0.20971059  1
  N  N121  1  0.30435776  0.44461729  0.05366702  1
  N  N122  1  0.44441724  0.12243818  0.09500709  1
  N  N123  1  0.46669827  0.12138726  0.43849426  1
  O  O124  1  0.43727352  0.17057529  0.26166678  1
  N  N125  1  0.40542418  0.15348015  0.08494992  1
  N  N126  1  0.36353045  0.03886986  0.20770862  1
  H  H127  1  0.35826139  0.41192587  0.46179890  1
  C  C128  1  0.28832390  0.31914209  0.43594567  1
  Cu  Cu129  1  0.37163269  0.47578959  0.11314466  1
  C  C130  1  0.38625869  0.32074203  0.41685256  1
  H  H131  1  0.38324529  0.35617564  0.07436652  1
  C  C132  1  0.36211280  0.18575704  0.07126774  1
  C  C133  1  0.32806123  0.36922513  0.31885412  1
  H  H134  1  0.41852075  0.35856216  0.29683683  1
  C  C135  1  0.31826388  0.40484432  0.24047322  1
  C  C136  1  0.44551414  0.30830534  0.44023352  1
  C  C137  1  0.45251672  0.21939314  0.23682470  1
  H  H138  1  0.33070644  0.08956383  0.12503286  1
  C  C139  1  0.29950259  0.12232839  0.13786480  1
  C  C140  1  0.26560122  0.21671072  0.13684014  1
  C  C141  1  0.25628378  0.10504895  0.19396609  1
  O  O142  1  0.46370626  0.43222800  0.08252376  1
  C  C143  1  0.30771892  0.17712989  0.11300408  1
  C  C144  1  0.38018415  0.34996579  0.33703383  1
  O  O145  1  0.48174644  0.31867976  0.39098654  1
  O  O146  1  0.35983637  0.42638808  0.20740524  1
  H  H147  1  0.39186557  0.08006617  0.43162093  1
  O  O148  1  0.42081602  0.25358360  0.21389482  1
  N  N149  1  0.31541178  0.03070853  0.23264114  1
  C  C150  1  0.38701931  0.03682484  0.44278067  1
  C  C151  1  0.28169921  0.35663127  0.36531263  1
  Cu  Cu152  1  0.25033862  0.38794093  0.09920477  1
  C  C153  1  0.34166993  0.30168812  0.46386403  1
  H  H154  1  0.43036056  0.45810619  0.39645461  1
  Cu  Cu155  1  0.47654950  0.11007867  0.21908817  1
  O  O156  1  0.48599707  0.46272955  0.24965331  1
  C  C157  1  0.40919336  0.49705927  0.38000746  1
  H  H158  1  0.27074033  0.25767175  0.10524650  1
  C  C159  1  0.37629613  0.23573501  0.02634814  1
  C  C160  1  0.26288909  0.05047183  0.23337885  1
  O  O161  1  0.49341092  0.24119181  0.00718638  1
  C  C162  1  0.38947869  0.35408880  0.00082051  1
  N  N163  1  0.33643541  0.26676233  0.00017497  1
  C  C164  1  0.45275331  0.43500562  0.00290682  1
  N  N165  1  0.33510856  0.48601132  0.49176599  1
  H  H166  1  0.41903420  0.24822779  0.00813772  1
  C  C167  1  0.41109608  0.08411975  0.66262377  1
  Cu  Cu168  1  0.48668801  0.33396080  0.59799699  1
  N  N169  1  0.48780234  0.11833310  0.51095200  1
  C  C170  1  0.37045930  0.11736536  0.62448443  1
  H  H171  1  0.38175964  0.15565735  0.58681142  1
  O  O172  1  0.49394773  0.44952275  0.52338846  1
  C  C173  1  0.43162327  0.38370076  0.86741740  1
  C  C174  1  0.28906510  0.43717208  0.74966787  1
  H  H175  1  0.46852333  0.10091363  0.79551101  1
  C  C176  1  0.29040006  0.45680999  0.66217974  1
  H  H177  1  0.43389260  0.01242959  0.74134174  1
  O  O178  1  0.28854852  0.18732906  0.56615942  1
  C  C179  1  0.30287330  0.05593202  0.67649777  1
  H  H180  1  0.45602608  0.41329722  0.82997847  1
  C  C181  1  0.34523764  0.02792435  0.72009686  1
  N  N182  1  0.31291456  0.36727240  0.61813097  1
  C  C183  1  0.27328005  0.14348463  0.60294407  1
  C  C184  1  0.36198578  0.31095942  0.95812581  1
  H  H185  1  0.30444841  0.39624949  0.76374112  1
  C  C186  1  0.30983954  0.41753013  0.59097183  1
  C  C187  1  0.40646610  0.33424950  0.73158941  1
  C  C188  1  0.47330997  0.10027690  0.66766806  1
  H  H189  1  0.34897130  0.27003419  0.83561390  1
  N  N190  1  0.49393023  0.10468421  0.74526461  1
  C  C191  1  0.27089388  0.47526770  0.81543724  1
  C  C192  1  0.31458649  0.10604954  0.63948785  1
  O  O193  1  0.46472464  0.47440875  0.95493118  1
  C  C194  1  0.40095241  0.03868483  0.71476929  1
  O  O195  1  0.44614338  0.36139496  0.69498032  1
  C  C196  1  0.42431243  0.38984539  0.95497804  1
  O  O197  1  0.38044643  0.29811604  0.68864039  1
  N  N198  1  0.29571587  0.45610356  0.97579884  1
  N  N199  1  0.31514839  0.32044234  0.64838742  1
  C  C200  1  0.36839015  0.30272768  0.86846743  1
  C  C201  1  0.26267555  0.44845527  0.90390410  1
  C  C202  1  0.40165713  0.34130179  0.82530102  1
  H  H203  1  0.25875232  0.04291855  0.68147474  1
  H  H204  1  0.35133555  0.27659514  0.51944414  1
  O  O205  1  0.45116806  0.28844228  0.52067291  1
  C  C206  1  0.33549759  0.43525333  0.51044149  1
  N  N207  1  0.35260199  0.02269116  0.50367975  1
  Cu  Cu208  1  0.25666388  0.26087479  0.60981697  1
  O  O209  1  0.25457566  0.24347752  0.73841452  1
  C  C210  1  0.31879212  0.94630097  0.43018059  1
  N  N211  1  0.40536580  0.98698981  0.23641763  1
  N  N212  1  0.41539334  0.79888281  0.45572613  1
  O  O213  1  0.40746778  0.90110608  0.04408068  1
  C  C214  1  0.42055847  0.99325011  0.40109136  1
  Cu  Cu215  1  0.37225575  0.83284996  0.07373014  1
  O  O216  1  0.42478539  0.80201487  0.14992683  1
  H  H217  1  0.41103307  0.88584649  0.41590833  1
  H  H218  1  0.36691901  0.68506497  0.12989027  1
  C  C219  1  0.43701220  0.82053363  0.22331604  1
  Cu  Cu220  1  0.35464898  0.77072661  0.30087321  1
  C  C221  1  0.27284556  0.74097394  0.19070446  1
  H  H222  1  0.27849602  0.53922443  0.04517808  1
  O  O223  1  0.40138406  0.83173031  0.28025112  1
  O  O224  1  0.32266854  0.67518368  0.42217027  1
  C  C225  1  0.40780114  0.58342070  0.30563559  1
  C  C226  1  0.33990640  0.56550924  0.41931260  1
  O  O227  1  0.31511966  0.77028851  0.20042907  1
  C  C228  1  0.49400356  0.98254011  0.03847129  1
  C  C229  1  0.34888869  0.65857901  0.35547034  1
  H  H230  1  0.42292182  0.61073634  0.25518603  1
  C  C231  1  0.37582745  0.58625738  0.05327527  1
  C  C232  1  0.42924261  0.53029893  0.31632478  1
  C  C233  1  0.44100095  0.90257388  0.46077244  1
  C  C234  1  0.28527717  0.87090275  0.34729274  1
  O  O235  1  0.36554990  0.69088813  0.30031393  1
  C  C236  1  0.36560802  0.60112138  0.35947594  1
  C  C237  1  0.32415875  0.61348574  0.08776116  1
  C  C238  1  0.27817609  0.57928446  0.08039687  1
  C  C239  1  0.32640199  0.66281881  0.12943607  1
  C  C240  1  0.35976081  0.51193132  0.42573911  1
  H  H241  1  0.47829708  0.90021652  0.32613403  1
  C  C242  1  0.45628476  0.95848085  0.45997595  1
  N  N243  1  0.38274168  0.76342017  0.42708630  1
  C  C244  1  0.27564913  0.68589878  0.15856970  1
  H  H245  1  0.32126706  0.97049863  0.37267562  1
  N  N246  1  0.41797987  0.98596444  0.31596484  1
  C  C247  1  0.30599171  0.89139531  0.43267823  1
  O  O248  1  0.41745831  0.61087806  0.05982263  1
  O  O249  1  0.37927452  0.53329619  0.02047881  1
  O  O250  1  0.28301517  0.89808403  0.28034979  1
  H  H251  1  0.47119159  0.98051746  0.10019342  1
  C  C252  1  0.49604504  0.83381804  0.24350569  1
  H  H253  1  0.30405382  0.58061214  0.45692904  1
  O  O254  1  0.26827124  0.82056817  0.34601671  1
  C  C255  1  0.47466394  0.51277568  0.25812432  1
  O  O256  1  0.32273187  0.79814643  0.65999864  1
  O  O257  1  0.38077345  0.85475398  0.72101146  1
  C  C258  1  0.43771824  0.90624971  0.97557685  1
  Cu  Cu259  1  0.40897990  0.51975140  0.90226401  1
  O  O260  1  0.28151454  0.96330807  0.76767031  1
  C  C261  1  0.27366327  0.51099985  0.63825567  1
  H  H262  1  0.39225564  0.62638450  0.61848876  1
  C  C263  1  0.26413726  0.76959744  0.93264383  1
  C  C264  1  0.26821073  0.72918746  0.86704517  1
  O  O265  1  0.38477644  0.52888381  0.67953196  1
  Cu  Cu266  1  0.37748922  0.70091294  0.50459644  1
  O  O267  1  0.34388971  0.80601665  0.87232348  1
  O  O268  1  0.36806988  0.94996271  0.80762450  1
  C  C269  1  0.44871699  0.80987631  0.52186326  1
  C  C270  1  0.33297433  0.88160329  0.58006624  1
  C  C271  1  0.34679689  0.84125771  0.65857638  1
  C  C272  1  0.43084811  0.63448409  0.65484162  1
  H  H273  1  0.27803170  0.52066393  0.57073126  1
  H  H274  1  0.30897014  0.73002307  0.82818082  1
  Cu  Cu275  1  0.36283229  0.87789522  0.84100322  1
  C  C276  1  0.41963823  0.54325377  0.72746664  1
  C  C277  1  0.45221780  0.59547092  0.71099730  1
  O  O278  1  0.43839232  0.51324089  0.79473477  1
  C  C279  1  0.46670828  0.76891950  0.58207527  1
  C  C280  1  0.46232189  0.68293726  0.64058219  1
  C  C281  1  0.31046730  0.80864553  0.93462397  1
  N  N282  1  0.44425157  0.72011304  0.57743907  1
  C  C283  1  0.48246106  0.94546308  0.97207529  1
  C  C284  1  0.26029673  0.54747609  0.70408956  1
  O  O285  1  0.43117162  0.87751756  0.90769282  1
  C  C286  1  0.35120351  0.93354400  0.58509530  1
  H  H287  1  0.37476590  0.95139635  0.64342489  1
  C  C288  1  0.32888177  0.97728219  0.77008561  1
  C  C289  1  0.25884583  0.52961170  0.79439240  1
  C  C290  1  0.46843300  0.86822162  0.52260169  1
  C  C291  1  0.49655701  0.97945901  0.51864979  1
  C  C292  1  0.34141691  0.96744126  0.50937790  1
  C  C293  1  0.30823673  0.85738416  0.50686993  1
  H  H294  1  0.29438040  0.81454624  0.50553802  1
  H  H295  1  0.49716361  0.77030319  0.63475277  1
  O  O296  1  0.31367836  0.84401285  0.99595730  1
  C  C297  1  0.58233516  0.02574864  0.36387701  1
  C  C298  1  0.65867662  0.08114572  0.29747463  1
  Cu  Cu299  1  0.52722407  0.43553911  0.15294695  1
  N  N300  1  0.62316101  0.20139664  0.40142526  1
  Cu  Cu301  1  0.70027878  0.40105313  0.12834712  1
  O  O302  1  0.57564363  0.37436541  0.12962435  1
  C  C303  1  0.74093353  0.01076401  0.37490661  1
  C  C304  1  0.60678892  0.34503895  0.17928951  1
  H  H305  1  0.70057413  0.20683746  0.33913952  1
  C  C306  1  0.67528626  0.19586919  0.39762393  1
  C  C307  1  0.69552823  0.16052645  0.46733228  1
  C  C308  1  0.51317017  0.23739291  0.25687933  1
  H  H309  1  0.74934717  0.23027381  0.04473182  1
  C  C310  1  0.54479271  0.20751124  0.31469324  1
  H  H311  1  0.53046220  0.16754974  0.34367262  1
  C  C312  1  0.55063300  0.05534043  0.10164339  1
  H  H313  1  0.57389371  0.19143398  0.10303463  1
  H  H314  1  0.58784664  0.12640357  0.46511237  1
  H  H315  1  0.65773097  0.28855215  0.31082680  1
  N  N316  1  0.67980143  0.17544054  0.15147223  1
  O  O317  1  0.65588759  0.35865095  0.19557056  1
  C  C318  1  0.60657393  0.21136514  0.06231687  1
  C  C319  1  0.74102305  0.14497574  0.25646808  1
  C  C320  1  0.64325676  0.03728239  0.35384373  1
  C  C321  1  0.61824958  0.27291636  0.28656958  1
  C  C322  1  0.71539094  0.09330453  0.28859286  1
  H  H323  1  0.62772481  0.11000400  0.26585355  1
  C  C324  1  0.66604065  0.20907643  0.08375957  1
  O  O325  1  0.51942853  0.05216455  0.16957309  1
  N  N326  1  0.54628953  0.06390027  0.35377850  1
  C  C327  1  0.59735973  0.22915333  0.33542566  1
  C  C328  1  0.72581894  0.18570476  0.19284971  1
  O  O329  1  0.58157455  0.09218299  0.08771602  1
  C  C330  1  0.58525109  0.29736678  0.22317327  1
  C  C331  1  0.53081489  0.28187001  0.20880626  1
  C  C332  1  0.70647548  0.23562274  0.03125283  1
  N  N333  1  0.51164844  0.10060925  0.34281036  1
  O  O334  1  0.68184238  0.46372372  0.19006791  1
  H  H335  1  0.74445559  0.22627506  0.18164700  1
  C  C336  1  0.53740943  0.01851517  0.02494709  1
  H  H337  1  0.50862533  0.30106251  0.15748765  1
  N  N338  1  0.74889171  0.14719869  0.47455675  1
  C  C339  1  0.68292331  0.00479326  0.39865154  1
  H  H340  1  0.73652430  0.10713660  0.00113459  1
  C  C341  1  0.72340365  0.06310023  0.00547629  1
  C  C342  1  0.68037372  0.15706706  0.62952297  1
  C  C343  1  0.66606774  0.15347732  0.79573753  1
  N  N344  1  0.68350790  0.20717749  0.79791579  1
  N  N345  1  0.66344133  0.06611943  0.87842735  1
  C  C346  1  0.65963569  0.14745583  0.54450585  1
  C  C347  1  0.64486379  0.14576927  0.70005208  1
  N  N348  1  0.73218485  0.45373651  0.62760245  1
  C  C349  1  0.58788902  0.13736845  0.68984420  1
  H  H350  1  0.59620874  0.05738395  0.94122604  1
  O  O351  1  0.71297241  0.30460006  0.82384690  1
  C  C352  1  0.68143216  0.47502855  0.60726860  1
  C  C353  1  0.73230063  0.29087913  0.89992037  1
  C  C354  1  0.69070779  0.26112355  0.95697222  1
  H  H355  1  0.61860655  0.28936114  0.88291726  1
  C  C356  1  0.63492602  0.26290996  0.93563891  1
  Cu  Cu357  1  0.66033629  0.01672669  0.76964648  1
  H  H358  1  0.63013437  0.39764436  0.60314244  1
  H  H359  1  0.72304524  0.17283858  0.63779882  1
  C  C360  1  0.60447480  0.13142557  0.53142642  1
  C  C361  1  0.63372478  0.44050485  0.59384347  1
  C  C362  1  0.68424114  0.03914480  0.95195486  1
  C  C363  1  0.58690231  0.46623896  0.56678483  1
  C  C364  1  0.67072713  0.12072874  0.87111189  1
  C  C365  1  0.56755353  0.12897382  0.60385360  1
  H  H366  1  0.56191058  0.12984769  0.74637289  1
  O  O367  1  0.54493748  0.37990732  0.57019811  1
  C  C368  1  0.53598844  0.43226320  0.55174070  1
  O  O369  1  0.73080404  0.04415133  0.74543176  1
  C  C370  1  0.56656550  0.02453616  0.94933108  1
  H  H371  1  0.69150399  0.14165260  0.92802184  1
  N  N372  1  0.68548040  0.25201639  0.76228430  1
  C  C373  1  0.53173038  0.24891270  0.95800056  1
  O  O374  1  0.52388535  0.26164888  0.88126390  1
  C  C375  1  0.59499151  0.23674199  0.98712647  1
  C  C376  1  0.50949086  0.11630176  0.59294495  1
  H  H377  1  0.50850243  0.02161659  0.51542185  1
  C  C378  1  0.67962459  0.51269853  0.16310202  1
  C  C379  1  0.51141577  0.87729607  0.29466032  1
  O  O380  1  0.63934648  0.52847208  0.11503751  1
  C  C381  1  0.55996401  0.97123723  0.36163105  1
  H  H382  1  0.51537705  0.96053844  0.34776175  1
  C  C383  1  0.72610453  0.60465984  0.15275936  1
  C  C384  1  0.74897723  0.97706765  0.07519015  1
  O  O385  1  0.68316649  0.78742715  0.17952931  1
  C  C386  1  0.59010125  0.81219830  0.21731229  1
  H  H387  1  0.66923379  0.97808713  0.45312242  1
  C  C388  1  0.56781493  0.88514216  0.31440021  1
  C  C389  1  0.60813674  0.85169522  0.27459346  1
  Cu  Cu390  1  0.56722207  0.53715917  0.16626447  1
  H  H391  1  0.52057245  0.77230926  0.14717326  1
  C  C392  1  0.53335251  0.80484768  0.19465114  1
  H  H393  1  0.69326986  0.62046946  0.10985105  1
  N  N394  1  0.59319755  0.93177613  0.34290738  1
  H  H395  1  0.65112610  0.86189285  0.28292256  1
  C  C396  1  0.63117730  0.77305613  0.17256935  1
  C  C397  1  0.72469274  0.54936629  0.18437100  1
  O  O398  1  0.61710727  0.73776554  0.12373830  1
  Cu  Cu399  1  0.73532160  0.79531949  0.08789460  1
  N  N400  1  0.72968921  0.91583233  0.47837533  1
  O  O401  1  0.50034522  0.54808990  0.21637651  1
  O  O402  1  0.72432830  0.86969716  0.08250398  1
  C  C403  1  0.70568006  0.95639890  0.02347133  1
  C  C404  1  0.69252091  0.89654651  0.02656785  1
  H  H405  1  0.70903179  0.79311972  0.74991421  1
  H  H406  1  0.71036855  0.56077202  0.60972231  1
  Cu  Cu407  1  0.63825492  0.67548852  0.69802125  1
  H  H408  1  0.53922294  0.72655064  0.66290852  1
  O  O409  1  0.62585668  0.75056892  0.70976035  1
  O  O410  1  0.58240633  0.65565198  0.77184596  1
  N  N411  1  0.61948856  0.97109332  0.62478951  1
  N  N412  1  0.66540499  0.98398041  0.65229365  1
  C  C413  1  0.53462649  0.64965724  0.73532228  1
  C  C414  1  0.62283373  0.78377778  0.64320347  1
  H  H415  1  0.64468577  0.95813103  0.92030408  1
  C  C416  1  0.67548438  0.81477117  0.62157215  1
  C  C417  1  0.63032253  0.55532761  0.56093088  1
  C  C418  1  0.56436124  0.96440275  0.64400858  1
  H  H419  1  0.54581640  0.53996115  0.52745536  1
  C  C420  1  0.67781287  0.53294414  0.59178661  1
  C  C421  1  0.62507526  0.61715486  0.55353996  1
  C  C422  1  0.52283192  0.94303085  0.57897185  1
  O  O423  1  0.66040275  0.65071831  0.59787535  1
  H  H424  1  0.51643530  0.57009746  0.79774639  1
  H  H425  1  0.64543519  0.85120389  0.50309620  1
  C  C426  1  0.55119151  0.97110436  0.73254145  1
  O  O427  1  0.65140466  0.87899262  0.99556453  1
  C  C428  1  0.55575273  0.98637370  0.87827518  1
  C  C429  1  0.67382301  0.98170966  0.96150623  1
  H  H430  1  0.53144498  0.86202989  0.62743018  1
  O  O431  1  0.59082148  0.63507255  0.50793475  1
  C  C432  1  0.68013983  0.84687163  0.54947694  1
  O  O433  1  0.58386542  0.78978397  0.59766902  1
  C  C434  1  0.58462257  0.52173815  0.54678602  1
  C  C435  1  0.71700008  0.81339382  0.68718443  1
  C  C436  1  0.51458806  0.68939100  0.67979812  1
  C  C437  1  0.51025026  0.88684039  0.58004940  1
  C  C438  1  0.72993383  0.87810319  0.54266772  1
  C  C439  1  0.51184221  0.95051798  0.89211138  1
  N  N440  1  0.58157152  0.98913629  0.79763001  1
  H  H441  1  0.51074421  0.96031593  0.75803173  1
  H  H442  1  0.50464355  0.91826705  0.84532117  1
  C  C443  1  0.50230081  0.60227774  0.75222001  1
  Cu  Cu444  1  0.90757248  0.04069707  0.14880204  1
  H  H445  1  0.94644610  0.38519393  0.23318031  1
  N  N446  1  0.88950470  0.29757433  0.44557985  1
  N  N447  1  0.78476891  0.16009201  0.30563714  1
  Cu  Cu448  1  0.97022474  0.24445915  0.04910641  1
  C  C449  1  0.75709617  0.03203169  0.06140209  1
  H  H450  1  0.89644393  0.15569498  0.34112543  1
  N  N451  1  0.82134915  0.16630511  0.36062416  1
  C  C452  1  0.97095165  0.09694860  0.43760059  1
  C  C453  1  0.90320947  0.41497459  0.10000820  1
  C  C454  1  0.95212170  0.44801119  0.11467567  1
  H  H455  1  0.94533147  0.32055713  0.33701225  1
  O  O456  1  0.93007235  0.27084545  0.14107628  1
  C  C457  1  0.93907475  0.16562887  0.32409986  1
  C  C458  1  0.98233318  0.13800854  0.36372491  1
  N  N459  1  0.84181572  0.31262653  0.43190531  1
  N  N460  1  0.79844161  0.14048642  0.45949258  1
  O  O461  1  0.92173797  0.07615229  0.44689374  1
  O  O462  1  0.86653332  0.23333706  0.22556686  1
  O  O463  1  0.80929126  0.11132216  0.08511920  1
  C  C464  1  0.91356543  0.23910927  0.20546048  1
  H  H465  1  0.99796333  0.34750368  0.00546176  1
  C  C466  1  0.80466641  0.40400299  0.07161116  1
  H  H467  1  0.90323602  0.37215491  0.10864493  1
  O  O468  1  0.92629953  0.06048220  0.03047389  1
  C  C469  1  0.85549783  0.44225283  0.07755581  1
  H  H470  1  0.79978715  0.06298620  0.30629013  1
  C  C471  1  0.80179969  0.06408727  0.10305306  1
  C  C472  1  0.98877778  0.38974534  0.21368213  1
  O  O473  1  0.96488998  0.04122505  0.22413830  1
  O  O474  1  0.81392652  0.35899417  0.09369911  1
  C  C475  1  0.95286091  0.20586105  0.26201997  1
  O  O476  1  0.83576762  0.03614468  0.15299656  1
  C  C477  1  0.99178057  0.28769257  0.45514620  1
  C  C478  1  0.75498148  0.05464994  0.32061275  1
  O  O479  1  0.75798636  0.42626647  0.06227139  1
  O  O480  1  0.94150190  0.14728444  0.02909549  1
  C  C481  1  0.98618241  0.31238492  0.37259440  1
  N  N482  1  0.87327981  0.00905907  0.33052648  1
  N  N483  1  0.79176882  0.27600768  0.49059719  1
  Cu  Cu484  1  0.90710049  0.00722214  0.48997442  1
  N  N485  1  0.99599275  0.42307623  0.15061505  1
  C  C486  1  0.85385508  0.49802647  0.06088671  1
  H  H487  1  0.76509617  0.48584662  0.25284901  1
  C  C488  1  0.93443345  0.27406600  0.48165205  1
  C  C489  1  0.84718810  0.07399387  0.89117635  1
  C  C490  1  0.80640718  0.12973492  0.78064069  1
  C  C491  1  0.80954619  0.08078349  0.82192744  1
  C  C492  1  0.88015539  0.16755119  0.88276696  1
  C  C493  1  0.84336745  0.17063423  0.81183101  1
  C  C494  1  0.96953811  0.16222747  0.74493199  1
  N  N495  1  0.95505257  0.46623077  0.86592172  1
  C  C496  1  0.83942651  0.32316920  0.69649704  1
  H  H497  1  0.85072242  0.03555838  0.93001400  1
  C  C498  1  0.87028742  0.32397945  0.77515604  1
  C  C499  1  0.91882589  0.13187554  0.62252535  1
  N  N500  1  0.86699893  0.48670077  0.56807544  1
  H  H501  1  0.87941946  0.28552529  0.80480008  1
  N  N502  1  0.83921970  0.22204253  0.77635687  1
  H  H503  1  0.93661530  0.08319461  0.82415548  1
  C  C504  1  0.88356968  0.42354116  0.75731946  1
  C  C505  1  0.92114406  0.09047295  0.68089221  1
  C  C506  1  0.84505712  0.42150822  0.68803082  1
  N  N507  1  0.80360977  0.27009297  0.56920968  1
  H  H508  1  0.81112388  0.18115067  0.66922223  1
  C  C509  1  0.81979779  0.27259665  0.65240194  1
  C  C510  1  0.89521249  0.37362903  0.80622740  1
  C  C511  1  0.88180430  0.11585483  0.91846488  1
  C  C512  1  0.81812164  0.22074289  0.69910545  1
  H  H513  1  0.90407104  0.46075920  0.77775356  1
  H  H514  1  0.90715276  0.20272475  0.90530875  1
  N  N515  1  0.96511760  0.22205477  0.60622138  1
  C  C516  1  0.82607346  0.37121706  0.65085365  1
  C  C517  1  0.77421636  0.47623100  0.58926388  1
  H  H518  1  0.88215141  0.22589015  0.57479660  1
  N  N519  1  0.93602679  0.48388979  0.59575990  1
  C  C520  1  0.92498858  0.24222721  0.55999634  1
  O  O521  1  0.86960053  0.03291304  0.58556044  1
  H  H522  1  0.79998624  0.36936535  0.59231548  1
  C  C523  1  0.83072820  0.46466387  0.61732869  1
  C  C524  1  0.77721968  0.03727473  0.78352895  1
  O  O525  1  0.77994041  0.28814465  0.91772125  1
  C  C526  1  0.96418144  0.42090797  0.90658021  1
  C  C527  1  0.95597081  0.09725993  0.76346754  1
  N  N528  1  0.93357739  0.32696129  0.93084641  1
  C  C529  1  0.89560497  0.03951349  0.65839045  1
  H  H530  1  0.98823905  0.42625540  0.96692888  1
  C  C531  1  0.94526130  0.17916444  0.65661998  1
  C  C532  1  0.93175330  0.37296739  0.88334305  1
  H  H533  1  0.89984604  0.12659696  0.55663511  1
  H  H534  1  0.77919718  0.13561266  0.72189889  1
  C  C535  1  0.92007655  0.10861033  0.99603767  1
  N  N536  1  0.96724561  0.31884995  0.99665555  1
  C  C537  1  0.89331041  0.55353101  0.31426734  1
  C  C538  1  0.90225673  0.52710854  0.06830503  1
  N  N539  1  0.84159704  0.53866643  0.32427662  1
  H  H540  1  0.77252726  0.95093244  0.12119467  1
  C  C541  1  0.80807462  0.56512678  0.26546012  1
  H  H542  1  0.89881281  0.58090383  0.25797685  1
  C  C543  1  0.93141317  0.54179985  0.38531489  1
  C  C544  1  0.81057853  0.61754481  0.22501821  1
  H  H545  1  0.84417963  0.64537790  0.24343607  1
  H  H546  1  0.81479764  0.51802398  0.04577689  1
  C  C547  1  0.78326752  0.69698405  0.13777907  1
  O  O548  1  0.89713885  0.87292187  0.42648390  1
  O  O549  1  0.82133594  0.71830089  0.17074283  1
  H  H550  1  0.99182178  0.52631579  0.09252524  1
  N  N551  1  0.91539395  0.52206989  0.45647347  1
  C  C552  1  0.95185977  0.50459784  0.09413895  1
  C  C553  1  0.77836303  0.92401877  0.44830812  1
  H  H554  1  0.97948156  0.62229239  0.47761895  1
  C  C555  1  0.77086500  0.63812113  0.17054062  1
  H  H556  1  0.93522742  0.78640707  0.45656741  1
  O  O557  1  0.93264483  0.97047339  0.29967751  1
  H  H558  1  0.81420738  0.89723753  0.46368195  1
  C  C559  1  0.78470910  0.97186115  0.39464661  1
  C  C560  1  0.99295531  0.56293490  0.37690045  1
  N  N561  1  0.83670013  0.98170362  0.36566707  1
  C  C562  1  0.90340248  0.58972069  0.04717656  1
  C  C563  1  0.97092964  0.99862433  0.27002897  1
  O  O564  1  0.94156869  0.61501317  0.07818048  1
  C  C565  1  0.76597652  0.52824378  0.23555396  1
  O  O566  1  0.86465046  0.61085701  0.00897202  1
  O  O567  1  0.75223917  0.72177527  0.08156313  1
  H  H568  1  0.76753638  0.51043437  0.54104066  1
  O  O569  1  0.78451414  0.52524897  0.83145481  1
  O  O570  1  0.78697955  0.82537647  0.82244009  1
  Cu  Cu571  1  0.84293876  0.94965323  0.75431081  1
  C  C572  1  0.77534128  0.87581700  0.60361870  1
  C  C573  1  0.97275667  0.75360310  0.57445467  1
  O  O574  1  0.84792755  0.87445436  0.75295190  1
  C  C575  1  0.93745163  0.84692925  0.55702142  1
  H  H576  1  0.94747940  0.90015265  0.67042632  1
  C  C577  1  0.95343465  0.86102748  0.64358597  1
  C  C578  1  0.80189464  0.84830435  0.75727658  1
  O  O579  1  0.79022970  0.99134800  0.81343876  1
  O  O580  1  0.95429642  0.66014154  0.77575451  1
  H  H581  1  0.93620712  0.56895602  0.82440085  1
  H  H582  1  0.81235469  0.90278182  0.59962251  1
  C  C583  1  0.76325626  0.84655361  0.67760014  1
  O  O584  1  0.98772645  0.78373057  0.84199796  1
  C  C585  1  0.97218789  0.81925948  0.69507320  1
  C  C586  1  0.97716192  0.55803279  0.85411357  1
  O  O587  1  0.99942460  0.87237312  0.82356524  1
  C  C588  1  0.98771064  0.82842842  0.79311691  1
  C  C589  1  0.94772949  0.79558592  0.52312473  1
  O  O590  1  0.89580207  0.93363831  0.53495167  1
  C  C591  1  0.81970531  0.51072601  0.86519921  1
  O  O592  1  0.90023240  0.99916994  0.71275261  1
  N  N593  1  0.96022744  0.50858547  0.53760177  1
  C  C594  1  0.99117071  0.50572920  0.88351717  1
  C  C595  1  0.98290190  0.76617554  0.66431423  1
  H  H596  1  0.99795919  0.73405614  0.71420433  1
  C  C597  1  0.99602283  0.65403993  0.81520452  1
  N  N598  1  0.99441988  0.70823358  0.53098051  1
  C  C599  1  0.90830760  0.88754163  0.50029261  1
