# generated using pymatgen
data_CuH2(C3O2)2
_symmetry_space_group_name_H-M   'P 1'
_cell_length_a   22.46481972
_cell_length_b   22.85516472
_cell_length_c   22.05972249
_cell_angle_alpha   90.00000000
_cell_angle_beta   90.00000000
_cell_angle_gamma   90.00000000
_symmetry_Int_Tables_number   1
_chemical_formula_structural   CuH2(C3O2)2
_chemical_formula_sum   'Cu48 H96 C288 O192'
_cell_volume   11326.28115676
_cell_formula_units_Z   48
loop_
 _symmetry_equiv_pos_site_id
 _symmetry_equiv_pos_as_xyz
  1  'x, y, z'
loop_
 _atom_site_type_symbol
 _atom_site_label
 _atom_site_symmetry_multiplicity
 _atom_site_fract_x
 _atom_site_fract_y
 _atom_site_fract_z
 _atom_site_occupancy
  O  O0  1  0.34672656  0.45118003  0.05893001  1
  H  H1  1  0.29844432  0.28562557  0.07934978  1
  C  C2  1  0.05056879  0.00846503  0.21708712  1
  Cu  Cu3  1  0.40766698  0.47388965  0.11277408  1
  C  C4  1  0.07196409  0.18721729  0.16282967  1
  C  C5  1  0.05877937  0.37198771  0.15890200  1
  O  O6  1  0.45983399  0.41888923  0.13844068  1
  H  H7  1  0.10982158  0.15710750  0.15348729  1
  C  C8  1  0.04515919  0.22171913  0.11652090  1
  Cu  Cu9  1  0.26464339  0.43855237  0.18277379  1
  C  C10  1  0.42156754  0.21779111  0.21478560  1
  O  O11  1  0.13578363  0.46396288  0.23699506  1
  O  O12  1  0.19111144  0.25907553  0.08327322  1
  Cu  Cu13  1  0.19108058  0.18440074  0.04745842  1
  O  O14  1  0.10772869  0.18329630  0.04291172  1
  C  C15  1  0.06657588  0.21698483  0.05551861  1
  C  C16  1  0.46964505  0.24447810  0.17372471  1
  C  C17  1  0.32118715  0.40201290  0.06860552  1
  C  C18  1  0.32977845  0.35605000  0.02196923  1
  C  C19  1  0.10625365  0.34158251  0.13120230  1
  H  H20  1  0.11663015  0.33961934  0.08340922  1
  C  C21  1  0.14376854  0.30990863  0.17052883  1
  C  C22  1  0.46778204  0.30431213  0.15863541  1
  H  H23  1  0.43703295  0.33374491  0.18087998  1
  O  O24  1  0.22560647  0.24633712  0.17478749  1
  C  C25  1  0.19232942  0.27029936  0.14190516  1
  C  C26  1  0.04721960  0.37274285  0.22102655  1
  C  C27  1  0.05330708  0.19024693  0.22198136  1
  O  O28  1  0.03716546  0.41252321  0.06315049  1
  O  O29  1  0.42711475  0.16168588  0.22680553  1
  O  O30  1  0.29302314  0.39447419  0.11736568  1
  C  C31  1  0.00210081  0.22252298  0.23716913  1
  C  C32  1  0.31506201  0.29812227  0.03387961  1
  O  O33  1  0.03744287  0.24311298  0.01332360  1
  O  O34  1  0.37857450  0.24364462  0.22800909  1
  O  O35  1  0.27727467  0.18048162  0.04777721  1
  C  C36  1  0.02490208  0.41109244  0.11559885  1
  H  H37  1  0.00840409  0.39288886  0.24155685  1
  H  H38  1  0.05829074  0.04984610  0.23844142  1
  C  C39  1  0.13339699  0.30478906  0.23253328  1
  O  O40  1  0.13320962  0.02033144  0.49589913  1
  C  C41  1  0.08592542  0.33842935  0.25493756  1
  C  C42  1  0.35303796  0.06136323  0.44383180  1
  C  C43  1  0.07274864  0.34015313  0.32316796  1
  O  O44  1  0.32023441  0.11298950  0.33213064  1
  Cu  Cu45  1  0.37894980  0.11220277  0.27303535  1
  C  C46  1  0.29576115  0.06462414  0.34890424  1
  C  C47  1  0.15378738  0.06866376  0.47853108  1
  O  O48  1  0.14129655  0.01776187  0.30623497  1
  O  O49  1  0.10496587  0.30918776  0.35325265  1
  O  O50  1  0.13299602  0.09891677  0.43704012  1
  H  H51  1  0.08165385  0.47419213  0.33827503  1
  H  H52  1  0.21856857  0.17687230  0.44929225  1
  O  O53  1  0.43341868  0.04921863  0.25796100  1
  H  H54  1  0.46916362  0.27013746  0.33933670  1
  Cu  Cu55  1  0.08199983  0.08417555  0.37101358  1
  O  O56  1  0.01570146  0.03839854  0.38180383  1
  O  O57  1  0.06173710  0.15318178  0.32363888  1
  C  C58  1  0.06688998  0.48319392  0.45849664  1
  C  C59  1  0.31107257  0.03591963  0.40585425  1
  C  C60  1  0.48552767  0.17355515  0.39971448  1
  C  C61  1  0.17656508  0.47775371  0.26741267  1
  H  H62  1  0.37087925  0.10389705  0.42956211  1
  Cu  Cu63  1  0.19073906  0.08088190  0.28870951  1
  O  O64  1  0.25712926  0.04215254  0.31612386  1
  C  C65  1  0.12038435  0.48931190  0.36291098  1
  O  O66  1  0.44379232  0.20827833  0.41855542  1
  O  O67  1  0.03005401  0.37121582  0.34488728  1
  H  H68  1  0.16108432  0.27787287  0.26299488  1
  C  C69  1  0.45621643  0.02189536  0.30336566  1
  O  O70  1  0.02286818  0.45709956  0.43531997  1
  Cu  Cu71  1  0.01325226  0.37254446  0.42966563  1
  O  O72  1  0.29428930  0.24651691  0.45451528  1
  C  C73  1  0.08361064  0.15759347  0.27116266  1
  O  O74  1  0.49803448  0.13149573  0.43290071  1
  C  C75  1  0.23242962  0.15019913  0.48954917  1
  C  C76  1  0.17509587  0.49713120  0.33292553  1
  C  C77  1  0.37051617  0.03197363  0.49638842  1
  O  O78  1  0.43040278  0.01181070  0.34942720  1
  C  C79  1  0.31262878  0.21965923  0.49775205  1
  O  O80  1  0.12685208  0.12477580  0.25733231  1
  O  O81  1  0.23289188  0.47106530  0.25112974  1
  C  C82  1  0.27982831  0.08115779  0.58684653  1
  C  C83  1  0.30313644  0.04683794  0.63742044  1
  O  O84  1  0.00996764  0.02913128  0.56992791  1
  O  O85  1  0.35996117  0.23309338  0.52934656  1
  O  O86  1  0.34423470  0.06796836  0.66850419  1
  Cu  Cu87  1  0.42938639  0.07098354  0.66027425  1
  C  C88  1  0.30459278  0.13497948  0.57190910  1
  O  O89  1  0.42559996  0.03001596  0.58659219  1
  O  O90  1  0.48795110  0.41368110  0.67289783  1
  H  H91  1  0.33985020  0.15027217  0.59941725  1
  H  H92  1  0.21107315  0.01896745  0.56535059  1
  C  C93  1  0.45391641  0.45538601  0.66323845  1
  C  C94  1  0.28234170  0.16549314  0.52251740  1
  C  C95  1  0.22939482  0.06197690  0.55379449  1
  O  O96  1  0.42537305  0.47731311  0.70864544  1
  C  C97  1  0.41227932  0.05809206  0.54027380  1
  C  C98  1  0.45515611  0.48817402  0.60601687  1
  O  O99  1  0.43126022  0.11037401  0.53274656  1
  H  H100  1  0.01448213  0.43493010  0.58080804  1
  C  C101  1  0.20584909  0.09734849  0.50910490  1
  C  C102  1  0.49320743  0.47163138  0.55832395  1
  O  O103  1  0.00130986  0.36793427  0.51229148  1
  O  O104  1  0.06847853  0.49495888  0.51528834  1
  Cu  Cu105  1  0.43668675  0.24024622  0.50004902  1
  O  O106  1  0.02977607  0.17575241  0.64410699  1
  H  H107  1  0.01396602  0.08196533  0.69366418  1
  C  C108  1  0.35322592  0.27169249  0.93494453  1
  H  H109  1  0.36435415  0.23695255  0.90075361  1
  O  O110  1  0.31615446  0.16324369  0.95666220  1
  C  C111  1  0.39602141  0.34697351  0.86731164  1
  O  O112  1  0.40369011  0.31060630  0.82949360  1
  C  C113  1  0.35621026  0.37487091  0.96798475  1
  C  C114  1  0.36621779  0.33106311  0.92592472  1
  Cu  Cu115  1  0.41756404  0.44293438  0.78599991  1
  O  O116  1  0.40901008  0.40150226  0.85538317  1
  H  H117  1  0.36768380  0.42157080  0.96105432  1
  C  C118  1  0.32415667  0.25683755  0.98887273  1
  O  O119  1  0.48686940  0.48234606  0.81329954  1
  C  C120  1  0.30192443  0.19528562  0.99752414  1
  O  O121  1  0.05824139  0.79841403  0.14782910  1
  O  O122  1  0.43220548  0.54801632  0.08027490  1
  C  C123  1  0.24799166  0.60360520  0.19414643  1
  Cu  Cu124  1  0.04380377  0.71679142  0.15236548  1
  C  C125  1  0.29839414  0.59269714  0.22895751  1
  H  H126  1  0.23501267  0.57056375  0.16080004  1
  C  C127  1  0.49407889  0.62116294  0.03814132  1
  O  O128  1  0.11962066  0.70533686  0.18431424  1
  C  C129  1  0.33321636  0.53808748  0.21867270  1
  C  C130  1  0.21134979  0.65032092  0.21048471  1
  O  O131  1  0.15397111  0.63894296  0.12444313  1
  C  C132  1  0.15818022  0.66482548  0.17104755  1
  C  C133  1  0.08309630  0.96017631  0.23182147  1
  C  C134  1  0.07512701  0.90669527  0.20366223  1
  C  C135  1  0.03049555  0.89945384  0.16054744  1
  O  O136  1  0.31279695  0.50655355  0.17514671  1
  H  H137  1  0.10052270  0.86701435  0.21948990  1
  C  C138  1  0.00582060  0.99875086  0.17237963  1
  C  C139  1  0.48437938  0.56972837  0.07724953  1
  C  C140  1  0.02151626  0.84067595  0.13550086  1
  H  H141  1  0.40442034  0.62153903  0.00047566  1
  C  C142  1  0.44852648  0.64245060  0.00024082  1
  C  C143  1  0.22049675  0.53662710  0.42199397  1
  Cu  Cu144  1  0.34746262  0.65711944  0.43598056  1
  O  O145  1  0.33192926  0.71037682  0.37219845  1
  H  H146  1  0.26523237  0.53056019  0.33362352  1
  C  C147  1  0.28602216  0.71799439  0.34200232  1
  C  C148  1  0.31312819  0.62964925  0.27794731  1
  C  C149  1  0.30255236  0.95568116  0.47590260  1
  O  O150  1  0.22226128  0.76984546  0.47737624  1
  C  C151  1  0.22465547  0.52199899  0.36004396  1
  H  H152  1  0.19415488  0.72768680  0.26838299  1
  C  C153  1  0.16613699  0.52581821  0.45342574  1
  C  C154  1  0.26762746  0.90025361  0.49273731  1
  H  H155  1  0.25278230  0.96009423  0.39321627  1
  O  O156  1  0.23127264  0.88102977  0.45246763  1
  O  O157  1  0.16396564  0.92681832  0.28757757  1
  H  H158  1  0.00605539  0.86773080  0.39187862  1
  C  C159  1  0.27269139  0.56022881  0.45224994  1
  O  O160  1  0.24450728  0.75301210  0.35715609  1
  H  H161  1  0.48217115  0.58960721  0.46110309  1
  O  O162  1  0.31646234  0.57809653  0.42291851  1
  C  C163  1  0.27520315  0.67727840  0.29090161  1
  C  C164  1  0.13218026  0.96607556  0.27962082  1
  C  C165  1  0.22388756  0.68933481  0.25719395  1
  O  O166  1  0.03626444  0.95649993  0.43520106  1
  O  O167  1  0.41215353  0.65720696  0.49295424  1
  Cu  Cu168  1  0.24043412  0.81462460  0.40695643  1
  H  H169  1  0.35264356  0.62293371  0.30476495  1
  C  C170  1  0.28455850  0.98218508  0.42235820  1
  C  C171  1  0.11874474  0.50114030  0.42441515  1
  O  O172  1  0.20282076  0.67682322  0.49839431  1
  C  C173  1  0.18505040  0.72921349  0.49050306  1
  C  C174  1  0.01170513  0.98210068  0.39262239  1
  O  O175  1  0.37160921  0.52402430  0.25402171  1
  O  O176  1  0.00180066  0.60625959  0.50667550  1
  H  H177  1  0.35436977  0.95768987  0.55915401  1
  H  H178  1  0.39130401  0.55172359  0.63224498  1
  Cu  Cu179  1  0.45028477  0.68588171  0.64502458  1
  O  O180  1  0.00502620  0.53755078  0.72271006  1
  C  C181  1  0.03018229  0.86935407  0.54900213  1
  C  C182  1  0.02084757  0.70692673  0.52526799  1
  C  C183  1  0.30257487  0.75544468  0.70652656  1
  Cu  Cu184  1  0.03109819  0.55937692  0.56372007  1
  Cu  Cu185  1  0.27619376  0.65411043  0.53216159  1
  C  C186  1  0.00258562  0.76311339  0.53961752  1
  O  O187  1  0.35539487  0.60858084  0.72046227  1
  O  O188  1  0.04657856  0.51938889  0.63305534  1
  C  C189  1  0.34455513  0.97890959  0.51399419  1
  O  O190  1  0.02922660  0.86512074  0.68857265  1
  C  C191  1  0.24646008  0.66714921  0.70173461  1
  O  O192  1  0.35126029  0.64304532  0.56994768  1
  C  C193  1  0.39903156  0.63014068  0.54225882  1
  C  C194  1  0.43396560  0.57757919  0.54958304  1
  C  C195  1  0.42506946  0.54083507  0.59861216  1
  H  H196  1  0.13112431  0.84088698  0.50770537  1
  Cu  Cu197  1  0.23502819  0.96543956  0.70855056  1
  O  O198  1  0.40881700  0.68678629  0.70831736  1
  C  C199  1  0.00991087  0.50689400  0.67700973  1
  H  H200  1  0.34707824  0.77689084  0.70668061  1
  O  O201  1  0.21492682  0.89031358  0.69543576  1
  C  C202  1  0.30119558  0.69486149  0.71073114  1
  C  C203  1  0.04415976  0.80724169  0.53242578  1
  O  O204  1  0.30843242  0.86688821  0.71866540  1
  O  O205  1  0.06889529  0.90768258  0.54475398  1
  O  O206  1  0.27964490  0.87419283  0.53717483  1
  C  C207  1  0.25154757  0.78949669  0.69949161  1
  C  C208  1  0.35942499  0.66046248  0.71747623  1
  C  C209  1  0.19631690  0.76357661  0.69156620  1
  C  C210  1  0.25794297  0.85502599  0.70361446  1
  O  O211  1  0.47025357  0.76643118  0.65177779  1
  C  C212  1  0.12372916  0.74260103  0.50654488  1
  O  O213  1  0.26649703  0.57669120  0.50941737  1
  C  C214  1  0.49112166  0.79770296  0.69391336  1
  C  C215  1  0.19650904  0.70295313  0.69178783  1
  H  H216  1  0.16793364  0.53149141  0.50401841  1
  H  H217  1  0.10028291  0.92777263  0.73239926  1
  H  H218  1  0.15412508  0.79219134  0.68627880  1
  O  O219  1  0.47062805  0.79730432  0.74619163  1
  O  O220  1  0.28220703  0.99613194  0.64896943  1
  H  H221  1  0.09793843  0.65293846  0.50353618  1
  C  C222  1  0.10371131  0.80013097  0.51381699  1
  C  C223  1  0.08308301  0.69794978  0.51256301  1
  H  H224  1  0.24526350  0.61856098  0.70224320  1
  O  O225  1  0.09348256  0.69595967  0.67145964  1
  C  C226  1  0.13750035  0.67029586  0.68558366  1
  O  O227  1  0.13523888  0.61940783  0.71414804  1
  C  C228  1  0.47356977  0.56334244  0.50296730  1
  C  C229  1  0.49984521  0.50819414  0.50769048  1
  C  C230  1  0.01542690  0.84297387  0.74028278  1
  Cu  Cu231  1  0.06543540  0.59583315  0.74729299  1
  Cu  Cu232  1  0.05249100  0.98776271  0.51078069  1
  H  H233  1  0.14420772  0.91323643  0.92880930  1
  C  C234  1  0.09473103  0.91053764  0.77845013  1
  C  C235  1  0.11658384  0.90304941  0.88883634  1
  C  C236  1  0.17857169  0.96637792  0.82246795  1
  C  C237  1  0.46110563  0.68610494  0.95834427  1
  Cu  Cu238  1  0.45842987  0.73080896  0.79351711  1
  O  O239  1  0.08978502  0.65467450  0.88120942  1
  O  O240  1  0.01481533  0.80349334  0.96679585  1
  O  O241  1  0.36339171  0.68863996  0.91384859  1
  O  O242  1  0.43543674  0.74423997  0.87423108  1
  C  C243  1  0.03353823  0.84645969  0.85005127  1
  C  C244  1  0.41369882  0.70628502  0.91412130  1
  C  C245  1  0.05187943  0.86795850  0.79232108  1
  C  C246  1  0.07072205  0.86246777  0.89594381  1
  C  C247  1  0.12777056  0.92442541  0.83158843  1
  O  O248  1  0.20796873  0.98332106  0.86303841  1
  H  H249  1  0.01736658  0.69312449  0.95569437  1
  C  C250  1  0.05016106  0.61952099  0.87070029  1
  O  O251  1  0.05301901  0.58108475  0.82947047  1
  C  C252  1  0.06421181  0.83304978  0.95774098  1
  O  O253  1  0.18340132  0.98614125  0.76627662  1
  O  O254  1  0.09611028  0.84874780  0.99661418  1
  H  H255  1  0.62910238  0.26153930  0.22836499  1
  H  H256  1  0.65745610  0.47372755  0.18114989  1
  C  C257  1  0.75363775  0.36006102  0.05185733  1
  O  O258  1  0.78941468  0.02013848  0.07510501  1
  Cu  Cu259  1  0.85219273  0.04168264  0.12286811  1
  C  C260  1  0.65759907  0.01562537  0.20043483  1
  C  C261  1  0.75799133  0.05449075  0.04587556  1
  C  C262  1  0.51455967  0.21088453  0.15080354  1
  C  C263  1  0.81913662  0.28426868  0.08990697  1
  O  O264  1  0.60922707  0.14670970  0.09145887  1
  H  H265  1  0.83186094  0.25676512  0.12955446  1
  C  C266  1  0.96923881  0.04868454  0.15210297  1
  C  C267  1  0.74652090  0.32822316  0.16215084  1
  C  C268  1  0.55729362  0.29398971  0.09672852  1
  C  C269  1  0.77254894  0.32473751  0.09936025  1
  Cu  Cu270  1  0.90553719  0.40576256  0.14078266  1
  C  C271  1  0.92769399  0.29630725  0.20438126  1
  O  O272  1  0.70576839  0.06703035  0.05874256  1
  H  H273  1  0.54208570  0.05030650  0.20946836  1
  Cu  Cu274  1  0.66962165  0.38439297  0.24662380  1
  O  O275  1  0.77144473  0.30489653  0.20421002  1
  C  C276  1  0.55691527  0.23439674  0.11020155  1
  O  O277  1  0.65725473  0.48381432  0.07827165  1
  O  O278  1  0.84102302  0.44042966  0.17160256  1
  C  C279  1  0.50259330  0.39179906  0.11283224  1
  H  H280  1  0.71610091  0.39181581  0.05850371  1
  O  O281  1  0.89574030  0.19685746  0.06232769  1
  O  O282  1  0.53518455  0.41988142  0.07736448  1
  C  C283  1  0.84637238  0.28296110  0.03355570  1
  C  C284  1  0.97955381  0.25813739  0.19190230  1
  O  O285  1  0.69699805  0.35495866  0.16555676  1
  O  O286  1  0.91342800  0.32742458  0.15792445  1
  O  O287  1  0.64049573  0.04323734  0.15575403  1
  C  C288  1  0.60311124  0.20042429  0.07813618  1
  O  O289  1  0.68381445  0.16136255  0.20314151  1
  H  H290  1  0.59308683  0.31487558  0.07124571  1
  Cu  Cu291  1  0.68316375  0.10913288  0.12966576  1
  O  O292  1  0.58982823  0.35806569  0.23503653  1
  H  H293  1  0.97811779  0.28767304  0.09615583  1
  C  C294  1  0.99921896  0.26028364  0.13090985  1
  O  O295  1  0.92963596  0.03861672  0.10891208  1
  O  O296  1  0.86049305  0.02117396  0.20953435  1
  O  O297  1  0.63337108  0.22443559  0.03666795  1
  C  C298  1  0.89225120  0.23373146  0.02542383  1
  O  O299  1  0.97228064  0.09566837  0.17622995  1
  C  C300  1  0.83878873  0.45395042  0.22558035  1
  O  O301  1  0.98066369  0.43678788  0.14104852  1
  H  H302  1  0.51480326  0.16231916  0.16397509  1
  C  C303  1  0.51190546  0.32833038  0.12199181  1
  Cu  Cu304  1  0.57593374  0.49208776  0.07135760  1
  C  C305  1  0.55869386  0.02301409  0.24797584  1
  C  C306  1  0.61515324  0.00095317  0.24852348  1
  H  H307  1  0.60506985  0.31240527  0.36861740  1
  C  C308  1  0.55191934  0.27436930  0.28325915  1
  C  C309  1  0.60295482  0.29290967  0.46436360  1
  Cu  Cu310  1  0.53149135  0.39831370  0.38307735  1
  O  O311  1  0.81324888  0.42071563  0.26363365  1
  C  C312  1  0.72524062  0.27836411  0.45216672  1
  C  C313  1  0.90945524  0.19035172  0.44157092  1
  O  O314  1  0.55244985  0.43497107  0.45423057  1
  H  H315  1  0.77331219  0.27312841  0.44607096  1
  C  C316  1  0.62985580  0.30167927  0.40700845  1
  O  O317  1  0.87915438  0.21622952  0.40701803  1
  O  O318  1  0.77243973  0.31640941  0.33784926  1
  C  C319  1  0.53926795  0.30363963  0.46902628  1
  C  C320  1  0.71560314  0.31081010  0.34418173  1
  O  O321  1  0.51628677  0.36632086  0.30519967  1
  O  O322  1  0.67910543  0.10742189  0.28298407  1
  H  H323  1  0.80183001  0.14422811  0.43716916  1
  C  C324  1  0.66174521  0.14823772  0.25513483  1
  C  C325  1  0.60705524  0.18244393  0.27992552  1
  O  O326  1  0.68124365  0.31909817  0.29961972  1
  C  C327  1  0.69153314  0.29844000  0.40195726  1
  C  C328  1  0.57261794  0.16388804  0.32908175  1
  C  C329  1  0.55198751  0.33498923  0.27180586  1
  H  H330  1  0.58266998  0.12100228  0.35100957  1
  H  H331  1  0.93784811  0.02687284  0.30943175  1
  O  O332  1  0.95911274  0.21350453  0.46257184  1
  O  O333  1  0.51672721  0.32840184  0.42346905  1
  C  C334  1  0.75646455  0.03914204  0.48562925  1
  C  C335  1  0.52314790  0.19558546  0.35158387  1
  Cu  Cu336  1  0.82258008  0.34063032  0.27293894  1
  O  O337  1  0.64529814  0.44760790  0.28993281  1
  C  C338  1  0.81704103  0.06645047  0.49595823  1
  C  C339  1  0.83218472  0.11918051  0.46627600  1
  C  C340  1  0.89069293  0.13481774  0.47640177  1
  C  C341  1  0.51134973  0.24918709  0.32550239  1
  H  H342  1  0.98208331  0.21759760  0.28274427  1
  C  C343  1  0.67469757  0.49354012  0.30295485  1
  C  C344  1  0.53616607  0.48906047  0.45666708  1
  C  C345  1  0.52147760  0.00608031  0.29640563  1
  C  C346  1  0.59700394  0.23935962  0.25940106  1
  O  O347  1  0.71989391  0.05838205  0.44985633  1
  O  O348  1  0.89751961  0.30429556  0.25102849  1
  C  C349  1  0.65126928  0.29813593  0.72162534  1
  C  C350  1  0.85614018  0.03561706  0.53272455  1
  O  O351  1  0.69422670  0.42047176  0.59677832  1
  O  O352  1  0.51811637  0.16363443  0.59478320  1
  Cu  Cu353  1  0.70570313  0.34382826  0.61669790  1
  H  H354  1  0.61639503  0.26710433  0.55868155  1
  C  C355  1  0.58991618  0.21637495  0.68233512  1
  C  C356  1  0.97870193  0.19000568  0.65269577  1
  C  C357  1  0.91380627  0.05669948  0.54135865  1
  C  C358  1  0.53318423  0.13379539  0.64169430  1
  C  C359  1  0.84768595  0.37070599  0.74020094  1
  C  C360  1  0.89534361  0.36051646  0.63762699  1
  C  C361  1  0.64989977  0.45288745  0.60278955  1
  C  C362  1  0.57174225  0.13228257  0.74691226  1
  C  C363  1  0.62272687  0.24078648  0.72927096  1
  H  H364  1  0.58414223  0.24341772  0.63932649  1
  H  H365  1  0.86625495  0.32475753  0.62428235  1
  C  C366  1  0.97922040  0.42554908  0.61279945  1
  O  O367  1  0.71399524  0.26438391  0.60768244  1
  Cu  Cu368  1  0.57176650  0.41905224  0.69194282  1
  C  C369  1  0.95562686  0.02388656  0.57928386  1
  O  O370  1  0.95210231  0.23212515  0.62425724  1
  C  C371  1  0.92679512  0.43643022  0.70593092  1
  Cu  Cu372  1  0.95076632  0.23401049  0.53795879  1
  O  O373  1  0.59807204  0.43118060  0.61617461  1
  H  H374  1  0.51634814  0.42881923  0.55485302  1
  O  O375  1  0.64367954  0.32325381  0.67066232  1
  H  H376  1  0.87279826  0.21328875  0.69678705  1
  C  C377  1  0.73505576  0.24478071  0.55666667  1
  O  O378  1  0.78329893  0.22359765  0.55257786  1
  C  C379  1  0.88975416  0.38966984  0.69360265  1
  C  C380  1  0.94136519  0.37897154  0.59943870  1
  O  O381  1  0.81060504  0.33033743  0.73253713  1
  C  C382  1  0.97020254  0.09508531  0.70971864  1
  C  C383  1  0.94454544  0.14932621  0.69553419  1
  C  C384  1  0.88949857  0.17030861  0.71230846  1
  C  C385  1  0.95676534  0.34971028  0.53948917  1
  C  C386  1  0.56653332  0.16088432  0.69091420  1
  O  O387  1  0.92718775  0.30880047  0.51635036  1
  C  C388  1  0.63624852  0.27468365  0.51383889  1
  C  C389  1  0.97254298  0.45573797  0.66738139  1
  C  C390  1  0.85511982  0.13297359  0.74807224  1
  C  C391  1  0.93292073  0.05884802  0.74142846  1
  Cu  Cu392  1  0.50656229  0.14310073  0.51460493  1
  O  O393  1  0.50658032  0.28849960  0.51374114  1
  O  O394  1  0.51077725  0.08390229  0.64811658  1
  O  O395  1  0.65799722  0.00490296  0.72951171  1
  H  H396  1  0.98021643  0.12523546  0.51087087  1
  C  C397  1  0.69711612  0.26776667  0.50549627  1
  C  C398  1  0.93394841  0.10655995  0.51007042  1
  C  C399  1  0.60636715  0.15733311  0.79283128  1
  O  O400  1  0.80463981  0.39821868  0.89867566  1
  H  H401  1  0.84579724  0.05012888  0.78658082  1
  O  O402  1  0.92515420  0.23737793  0.97744888  1
  Cu  Cu403  1  0.99812607  0.20345266  0.95522529  1
  C  C404  1  0.75392099  0.14041674  0.97767743  1
  C  C405  1  0.74954074  0.23035387  0.91040278  1
  Cu  Cu406  1  0.76558704  0.27788862  0.78394891  1
  H  H407  1  0.85503115  0.19952215  0.88283698  1
  Cu  Cu408  1  0.64231574  0.19013315  0.95787629  1
  O  O409  1  0.76683079  0.11249743  0.79895596  1
  C  C410  1  0.77881291  0.18019601  0.93639935  1
  C  C411  1  0.93028268  0.11221292  0.91897233  1
  O  O412  1  0.64630841  0.14808403  0.88995722  1
  O  O413  1  0.96258561  0.15170868  0.89760110  1
  Cu  Cu414  1  0.95078365  0.00642601  0.87716901  1
  C  C415  1  0.83860868  0.16826780  0.91676442  1
  O  O416  1  0.95395119  0.06255563  0.93342460  1
  O  O417  1  0.77961380  0.25854696  0.86951578  1
  O  O418  1  0.84831347  0.39790405  0.79067423  1
  H  H419  1  0.85718588  0.31688087  0.94263351  1
  C  C420  1  0.78643510  0.35848612  0.99759506  1
  Cu  Cu421  1  0.71020966  0.05674846  0.76832261  1
  O  O422  1  0.68736478  0.31489609  0.76116124  1
  Cu  Cu423  1  0.78911135  0.44547479  0.83081847  1
  C  C424  1  0.83381793  0.31887592  0.98595917  1
  O  O425  1  0.58177003  0.08102340  0.86426141  1
  O  O426  1  0.69858206  0.24645213  0.92713965  1
  O  O427  1  0.73346038  0.43608224  0.95707768  1
  C  C428  1  0.61080807  0.12847029  0.85089948  1
  C  C429  1  0.53810862  0.46879400  0.79428205  1
  H  H430  1  0.66166739  0.22980747  0.82013434  1
  C  C431  1  0.79474068  0.14696673  0.76562236  1
  C  C432  1  0.63245997  0.21282298  0.78469158  1
  C  C433  1  0.86913505  0.12016958  0.93754892  1
  C  C434  1  0.77326782  0.39931845  0.94716982  1
  C  C435  1  0.87795880  0.07642797  0.76201353  1
  C  C436  1  0.84333873  0.08168854  0.97963715  1
  H  H437  1  0.66018347  0.46339443  0.77330810  1
  O  O438  1  0.55164563  0.41785584  0.77630399  1
  Cu  Cu439  1  0.61763665  0.01579177  0.86170642  1
  H  H440  1  0.92329296  0.45854063  0.75019202  1
  H  H441  1  0.55323269  0.08886143  0.75545152  1
  C  C442  1  0.78678018  0.09311785  0.99893699  1
  H  H443  1  0.86877774  0.04324005  0.99810846  1
  O  O444  1  0.77066488  0.19653493  0.75237791  1
  H  H445  1  0.71224396  0.14851066  0.99840736  1
  O  O446  1  0.75464497  0.48423129  0.76189833  1
  H  H447  1  0.95351847  0.94000297  0.11269360  1
  C  C448  1  0.95927254  0.62978569  0.17690622  1
  O  O449  1  0.71702265  0.54899365  0.03816362  1
  C  C450  1  0.82347543  0.89721829  0.00788489  1
  O  O451  1  0.97701929  0.83557337  0.10455022  1
  C  C452  1  0.99186438  0.94415370  0.14595696  1
  H  H453  1  0.90098521  0.52231501  0.15555705  1
  O  O454  1  0.79114467  0.70656314  0.18293345  1
  Cu  Cu455  1  0.95697034  0.81617596  0.02489090  1
  C  C456  1  0.73610902  0.86994990  0.06416538  1
  C  C457  1  0.77555421  0.67602992  0.22264284  1
  H  H458  1  0.75017581  0.62433609  0.11411448  1
  O  O459  1  0.97135667  0.60899578  0.12968567  1
  O  O460  1  0.97967926  0.68177662  0.19179848  1
  C  C461  1  0.68674241  0.83902538  0.22805903  1
  H  H462  1  0.87567649  0.85452004  0.24836485  1
  O  O463  1  0.71984654  0.88455829  0.22954915  1
  Cu  Cu464  1  0.65666591  0.78297411  0.11619072  1
  C  C465  1  0.74342711  0.61763906  0.21248968  1
  O  O466  1  0.65182758  0.83118179  0.18525746  1
  C  C467  1  0.70747970  0.54498395  0.14579883  1
  O  O468  1  0.83156057  0.93185203  0.19649742  1
  C  C469  1  0.76193872  0.89418802  0.00792494  1
  O  O470  1  0.68333425  0.85229648  0.06800044  1
  H  H471  1  0.58050991  0.63926572  0.08021456  1
  O  O472  1  0.76520333  0.87654301  0.11244698  1
  C  C473  1  0.92328237  0.59317979  0.22103328  1
  C  C474  1  0.73632493  0.59887955  0.15406674  1
  O  O475  1  0.86989801  0.70855450  0.04745684  1
  C  C476  1  0.91784604  0.70594458  0.02555953  1
  O  O477  1  0.52691332  0.54925336  0.10823712  1
  O  O478  1  0.64857709  0.72870489  0.05431354  1
  C  C479  1  0.54861358  0.65002897  0.04417447  1
  H  H480  1  0.84910405  0.88327377  0.04717797  1
  Cu  Cu481  1  0.74284424  0.93447565  0.16661104  1
  C  C482  1  0.69315526  0.52680010  0.08444906  1
  C  C483  1  0.89751521  0.54150432  0.20093011  1
  O  O484  1  0.96201561  0.74012011  0.04324950  1
  C  C485  1  0.86548270  0.96652692  0.22205962  1
  O  O486  1  0.94432866  0.89905404  0.00561079  1
  C  C487  1  0.61307825  0.73178689  0.00591326  1
  C  C488  1  0.68485292  0.51216899  0.19370942  1
  O  O489  1  0.71037515  0.99610047  0.20349171  1
  C  C490  1  0.86423380  0.51119759  0.24445881  1
  C  C491  1  0.55754914  0.69423180  0.00256340  1
  C  C492  1  0.94293220  0.79110562  0.32487484  1
  C  C493  1  0.65545793  0.71875627  0.33761509  1
  C  C494  1  0.90538363  0.88324972  0.27585462  1
  O  O495  1  0.77426702  0.85575257  0.44523341  1
  C  C496  1  0.71815741  0.82488384  0.33504880  1
  H  H497  1  0.73323082  0.60160729  0.30906211  1
  H  H498  1  0.68817465  0.71066476  0.43250497  1
  H  H499  1  0.50739906  0.95904611  0.37957881  1
  C  C500  1  0.86730704  0.61193648  0.37830164  1
  C  C501  1  0.60061289  0.95504346  0.34514450  1
  O  O502  1  0.58740564  0.64707796  0.30197116  1
  C  C503  1  0.63795588  0.96779918  0.29707772  1
  Cu  Cu504  1  0.84499907  0.70782559  0.31889629  1
  O  O505  1  0.54547842  0.52280416  0.41322628  1
  C  C506  1  0.94296307  0.85694231  0.31784649  1
  C  C507  1  0.65172790  0.75412747  0.28636441  1
  C  C508  1  0.93986531  0.98021664  0.30764557  1
  O  O509  1  0.84572664  0.58173857  0.42163655  1
  C  C510  1  0.90451359  0.94460644  0.27164534  1
  O  O511  1  0.67680815  0.91187023  0.41006119  1
  O  O512  1  0.87309690  0.66603516  0.38243508  1
  H  H513  1  0.94293461  0.65533886  0.29034951  1
  H  H514  1  0.68732854  0.95901268  0.30066899  1
  C  C515  1  0.75232536  0.80430010  0.43994133  1
  C  C516  1  0.91928354  0.61594964  0.27886135  1
  C  C517  1  0.88185340  0.58513879  0.31898124  1
  Cu  Cu518  1  0.61919616  0.55232215  0.38876230  1
  C  C519  1  0.72417859  0.58443137  0.26335686  1
  O  O520  1  0.90205976  0.76357960  0.29258478  1
  O  O521  1  0.76381406  0.76510333  0.47870154  1
  H  H522  1  0.74793575  0.86291218  0.33207371  1
  O  O523  1  0.63497069  0.62558078  0.38603910  1
  C  C524  1  0.68513706  0.80559740  0.28458595  1
  C  C525  1  0.62141836  0.66122506  0.34112077  1
  C  C526  1  0.62015341  0.92477743  0.40375873  1
  C  C527  1  0.97752224  0.88866302  0.35750007  1
  H  H528  1  0.82560361  0.51061311  0.33605707  1
  O  O529  1  0.78009267  0.69142995  0.27884313  1
  C  C530  1  0.71566435  0.79066041  0.38750311  1
  C  C531  1  0.68669592  0.73641019  0.38913120  1
  O  O532  1  0.58429638  0.90809977  0.43993304  1
  Cu  Cu533  1  0.72334454  0.91748079  0.47967234  1
  C  C534  1  0.97351025  0.95020020  0.35132359  1
  C  C535  1  0.85604413  0.53246801  0.30386444  1
  C  C536  1  0.54112178  0.97353730  0.34572727  1
  C  C537  1  0.69302278  0.53308808  0.25288004  1
  O  O538  1  0.97514843  0.76761805  0.35932643  1
  H  H539  1  0.62235716  0.74320512  0.25028045  1
  O  O540  1  0.68115204  0.50935694  0.35571888  1
  Cu  Cu541  1  0.86678852  0.61618426  0.49219516  1
  C  C542  1  0.71976975  0.59825751  0.58847446  1
  C  C543  1  0.62920911  0.86060708  0.62331599  1
  C  C544  1  0.56045011  0.64855633  0.61914121  1
  H  H545  1  0.74627171  0.50996576  0.57031719  1
  C  C546  1  0.57812244  0.82678374  0.63527456  1
  C  C547  1  0.65423489  0.51575459  0.60052801  1
  C  C548  1  0.67031987  0.63376647  0.59898444  1
  H  H549  1  0.67394649  0.68026092  0.60084501  1
  O  O550  1  0.98281986  0.87684817  0.57856343  1
  C  C551  1  0.61367317  0.97535937  0.74196567  1
  O  O552  1  0.81912709  0.59745925  0.55717954  1
  C  C553  1  0.59918335  0.92231964  0.70696518  1
  O  O554  1  0.77619343  0.68286877  0.56225344  1
  Cu  Cu555  1  0.98436262  0.92453743  0.64885775  1
  C  C556  1  0.63926484  0.90928890  0.66019314  1
  C  C557  1  0.71083780  0.53990923  0.58423417  1
  O  O558  1  0.66386162  0.80330909  0.54450265  1
  H  H559  1  0.56016652  0.52923693  0.61947678  1
  O  O560  1  0.70928364  0.88820145  0.55835776  1
  C  C561  1  0.60340468  0.54936570  0.61101817  1
  Cu  Cu562  1  0.72207876  0.74370514  0.55220704  1
  H  H563  1  0.56991696  0.78680450  0.60730359  1
  C  C564  1  0.54078423  0.83907395  0.68371602  1
  C  C565  1  0.61372493  0.60956671  0.60969606  1
  O  O566  1  0.50874229  0.62919721  0.63661114  1
  H  H567  1  0.84055690  0.99472395  0.55016440  1
  H  H568  1  0.67505800  0.93940265  0.65365264  1
  O  O569  1  0.92601712  0.66019453  0.52678790  1
  C  C570  1  0.66874987  0.85159851  0.57276562  1
  C  C571  1  0.77480387  0.62768465  0.57112302  1
  O  O572  1  0.93817656  0.98080116  0.60915307  1
  C  C573  1  0.54898781  0.88901864  0.71899594  1
  O  O574  1  0.57217787  0.69988136  0.61455148  1
  H  H575  1  0.95802665  0.77737951  0.55697748  1
  O  O576  1  0.98924672  0.97407498  0.72359654  1
  O  O577  1  0.75097694  0.98641806  0.50797851  1
  C  C578  1  0.98236153  0.65601001  0.52314005  1
  O  O579  1  0.94797211  0.93070654  0.91214565  1
  C  C580  1  0.72874692  0.91171873  0.95839890  1
  C  C581  1  0.92790801  0.66157216  0.97664454  1
  C  C582  1  0.89001389  0.58413958  0.91296542  1
  H  H583  1  0.51416102  0.58512556  0.81951723  1
  C  C584  1  0.67893684  0.55588498  0.77385781  1
  C  C585  1  0.82199807  0.94163206  0.90764199  1
  Cu  Cu586  1  0.74084068  0.51196934  0.96809605  1
  O  O587  1  0.51811655  0.68087052  0.81928134  1
  C  C588  1  0.72756908  0.96248394  0.85836977  1
  C  C589  1  0.91948176  0.91815536  0.95866400  1
  H  H590  1  0.84395214  0.96140614  0.86693668  1
  C  C591  1  0.55980220  0.57493941  0.80353001  1
  O  O592  1  0.67100496  0.95506880  0.85983114  1
  C  C593  1  0.59916992  0.61982683  0.79938918  1
  C  C594  1  0.75886499  0.93646192  0.90951212  1
  C  C595  1  0.65891178  0.61266395  0.78181474  1
  H  H596  1  0.95155829  0.54818476  0.84612328  1
  H  H597  1  0.69030074  0.64903303  0.77380230  1
  O  O598  1  0.58035831  0.98829525  0.78759877  1
  C  C599  1  0.94840185  0.99826741  0.75510190  1
  O  O600  1  0.79009254  0.55967340  0.91700987  1
  H  H601  1  0.84005209  0.62955320  0.98480609  1
  O  O602  1  0.60642927  0.72231085  0.80669047  1
  C  C603  1  0.57612685  0.67985312  0.80852228  1
  C  C604  1  0.58058037  0.51740949  0.79040055  1
  H  H605  1  0.52469577  0.75066904  0.92840696  1
  O  O606  1  0.93187375  0.97534092  0.80245932  1
  C  C607  1  0.94559505  0.57818949  0.88483650  1
  O  O608  1  0.61813449  0.76895310  0.96956198  1
  C  C609  1  0.85288729  0.92042750  0.95643280  1
  C  C610  1  0.84011442  0.54884323  0.89279637  1
  H  H611  1  0.67829420  0.90487755  0.95796526  1
  C  C612  1  0.88154503  0.62434176  0.95961766  1
  O  O613  1  0.84749764  0.50504825  0.85863882  1
  C  C614  1  0.64041596  0.50805552  0.77752406  1
  C  C615  1  0.98257232  0.66046542  0.94635773  1
  O  O616  1  0.74774719  0.99498361  0.81666850  1
  C  C617  1  0.51597030  0.71278127  0.95843086  1
  C  C618  1  0.98875000  0.61728710  0.90221628  1
  O  O619  1  0.97915895  0.80617426  0.75128832  1
  H  H620  1  0.99524022  0.81898955  0.85492968  1
  H  H621  1  0.52048420  0.89985592  0.75834496  1
  O  O622  1  0.78110279  0.57559162  0.75206219  1
  C  C623  1  0.74344992  0.53988601  0.75890247  1
