# generated using pymatgen
data_CuH2(C3O2)2
_symmetry_space_group_name_H-M   'P 1'
_cell_length_a   26.04591929
_cell_length_b   17.30543828
_cell_length_c   27.20488403
_cell_angle_alpha   90.00000000
_cell_angle_beta   90.00000000
_cell_angle_gamma   90.00000000
_symmetry_Int_Tables_number   1
_chemical_formula_structural   CuH2(C3O2)2
_chemical_formula_sum   'Cu48 H96 C288 O192'
_cell_volume   12262.22193290
_cell_formula_units_Z   48
loop_
 _symmetry_equiv_pos_site_id
 _symmetry_equiv_pos_as_xyz
  1  'x, y, z'
loop_
 _atom_site_type_symbol
 _atom_site_label
 _atom_site_symmetry_multiplicity
 _atom_site_fract_x
 _atom_site_fract_y
 _atom_site_fract_z
 _atom_site_occupancy
  C  C0  1  0.10580513  0.04539890  0.13400771  1
  H  H1  1  0.14152680  0.09569310  0.19990298  1
  C  C2  1  0.14075919  0.09220398  0.15829223  1
  C  C3  1  0.17895963  0.13003800  0.13113965  1
  C  C4  1  0.18048517  0.12544092  0.08095247  1
  O  O5  1  0.19299411  0.38639253  0.12709819  1
  H  H6  1  0.20862832  0.15549824  0.05741930  1
  C  C7  1  0.14322379  0.07891751  0.05796052  1
  C  C8  1  0.21947494  0.17579007  0.15868912  1
  O  O9  1  0.21668021  0.17647014  0.20202987  1
  C  C10  1  0.22802767  0.43218982  0.12968525  1
  O  O11  1  0.04413838  0.39029343  0.06608772  1
  C  C12  1  0.04816070  0.32261923  0.04545173  1
  C  C13  1  0.10497476  0.03911616  0.08244593  1
  C  C14  1  0.14467521  0.07273159  0.00318588  1
  O  O15  1  0.03250947  0.26552595  0.06793759  1
  H  H16  1  0.07823468  0.00500901  0.06176226  1
  H  H17  1  0.13356334  0.49914630  0.12140161  1
  O  O18  1  0.25534301  0.21066545  0.13287743  1
  O  O19  1  0.43948205  0.12819460  0.06548789  1
  C  C20  1  0.48687835  0.42249820  0.12194296  1
  Cu  Cu21  1  0.27384432  0.30709814  0.14158771  1
  C  C22  1  0.45307967  0.07736506  0.03526874  1
  Cu  Cu23  1  0.37018612  0.12053427  0.08890979  1
  O  O24  1  0.48879114  0.47709712  0.20103138  1
  O  O25  1  0.36036507  0.23033885  0.07473415  1
  O  O26  1  0.34834824  0.29670919  0.14118578  1
  C  C27  1  0.41987534  0.33093877  0.09256029  1
  O  O28  1  0.27416265  0.41247756  0.14222025  1
  C  C29  1  0.44413076  0.32517188  0.04574929  1
  O  O30  1  0.37508798  0.01363017  0.10760089  1
  H  H31  1  0.41586808  0.38567914  0.16218190  1
  C  C32  1  0.37535087  0.28407933  0.10371712  1
  C  C33  1  0.48621048  0.37114491  0.04085930  1
  H  H34  1  0.42521248  0.29798677  0.01649150  1
  C  C35  1  0.43998830  0.38182414  0.12831610  1
  O  O36  1  0.37052068  0.45767973  0.24140845  1
  O  O37  1  0.42570219  0.05221198  0.00052752  1
  O  O38  1  0.14116969  0.25310768  0.35364523  1
  Cu  Cu39  1  0.07015460  0.25487936  0.34032999  1
  Cu  Cu40  1  0.17097845  0.39790508  0.37871819  1
  O  O41  1  0.07052725  0.36205149  0.34927503  1
  C  C42  1  0.07028428  0.40466784  0.38732144  1
  C  C43  1  0.15920252  0.25281267  0.39603368  1
  O  O44  1  0.16634450  0.31649345  0.41877539  1
  C  C45  1  0.18625266  0.18510796  0.41534794  1
  H  H46  1  0.16967220  0.11445849  0.35110414  1
  C  C47  1  0.18765250  0.11873865  0.38782055  1
  O  O48  1  0.11154847  0.43520665  0.40477919  1
  C  C49  1  0.21222988  0.18930754  0.45945876  1
  H  H50  1  0.21542526  0.24381937  0.47923476  1
  C  C51  1  0.21424441  0.05722183  0.40968385  1
  C  C52  1  0.02142612  0.42289108  0.40952627  1
  C  C53  1  0.24343059  0.05444415  0.45296178  1
  O  O54  1  0.16995222  0.46367427  0.32295025  1
  O  O55  1  0.04226280  0.03349845  0.34272933  1
  C  C56  1  0.23931188  0.12472567  0.47751994  1
  C  C57  1  0.02555384  0.45944419  0.45519103  1
  C  C58  1  0.00340497  0.12338774  0.46568600  1
  H  H59  1  0.06422272  0.47076745  0.46840761  1
  O  O60  1  0.00652158  0.25112410  0.31512564  1
  H  H61  1  0.10154379  0.02641184  0.41743196  1
  H  H62  1  0.08254420  0.48834740  0.31428121  1
  O  O63  1  0.04675756  0.11189376  0.48592424  1
  H  H64  1  0.26744320  0.00643503  0.46439635  1
  O  O65  1  0.25973895  0.45155303  0.39969307  1
  O  O66  1  0.44725268  0.25323281  0.42166961  1
  C  C67  1  0.36744455  0.40498192  0.32046369  1
  C  C68  1  0.32273229  0.43885584  0.33484412  1
  C  C69  1  0.39755724  0.35384910  0.34885727  1
  C  C70  1  0.40503722  0.28994471  0.43321983  1
  O  O71  1  0.43619459  0.38327317  0.26244003  1
  H  H72  1  0.43352730  0.32510906  0.33670026  1
  C  C73  1  0.30199329  0.42269439  0.38288268  1
  O  O74  1  0.38378140  0.27651436  0.47095203  1
  H  H75  1  0.32051726  0.36250601  0.45094542  1
  C  C76  1  0.39180989  0.41810414  0.27050073  1
  C  C77  1  0.33401433  0.37877827  0.41402952  1
  C  C78  1  0.37786603  0.34142525  0.39617481  1
  H  H79  1  0.30230347  0.47316673  0.30697512  1
  C  C80  1  0.11356638  0.18402624  0.67729275  1
  O  O81  1  0.16334444  0.28943701  0.65006879  1
  C  C82  1  0.14654895  0.12812721  0.65832978  1
  H  H83  1  0.18412044  0.14149441  0.64057651  1
  C  C84  1  0.12541974  0.26772244  0.67013589  1
  C  C85  1  0.13785924  0.05127729  0.66733416  1
  O  O86  1  0.09288099  0.31695838  0.69130808  1
  C  C87  1  0.07085022  0.16212610  0.70520313  1
  C  C88  1  0.09503822  0.02619450  0.69412586  1
  C  C89  1  0.06297122  0.08330358  0.71168889  1
  H  H90  1  0.02383730  0.20770792  0.54120950  1
  O  O91  1  0.21553531  0.01690255  0.63203096  1
  Cu  Cu92  1  0.02740118  0.34486397  0.67223697  1
  O  O93  1  0.12859421  0.02936129  0.51025379  1
  H  H94  1  0.09369429  0.49726940  0.72862310  1
  O  O95  1  0.01355817  0.44507784  0.70069548  1
  Cu  Cu96  1  0.06080586  0.02461836  0.52812658  1
  O  O97  1  0.00897512  0.31469390  0.60519082  1
  H  H98  1  0.04516934  0.20420966  0.72214109  1
  O  O99  1  0.00914970  0.00507369  0.63732712  1
  C  C100  1  0.01594525  0.06468783  0.73939733  1
  C  C101  1  0.49456573  0.39267607  0.74493185  1
  C  C102  1  0.29698826  0.30406183  0.69939076  1
  H  H103  1  0.45498180  0.31295202  0.69143593  1
  O  O104  1  0.43479851  0.35616369  0.60351383  1
  C  C105  1  0.26507001  0.12534711  0.52629049  1
  O  O106  1  0.35917039  0.46837770  0.61154523  1
  Cu  Cu107  1  0.37148097  0.36592316  0.63548450  1
  O  O108  1  0.48076546  0.45429015  0.57704663  1
  O  O109  1  0.28035608  0.05711992  0.54059006  1
  H  H110  1  0.29630481  0.44504546  0.74451522  1
  C  C111  1  0.27420216  0.32529559  0.74820775  1
  O  O112  1  0.26884931  0.18071594  0.55301754  1
  C  C113  1  0.47697982  0.36847110  0.69854145  1
  C  C114  1  0.46919122  0.41094661  0.60980590  1
  O  O115  1  0.31603998  0.36467535  0.67496300  1
  C  C116  1  0.48606957  0.42262114  0.66173439  1
  O  O117  1  0.29333689  0.24037866  0.68450746  1
  O  O118  1  0.13798219  0.41837256  0.85140363  1
  C  C119  1  0.13731833  0.42327325  0.89711929  1
  C  C120  1  0.11330490  0.35937213  0.92389841  1
  O  O121  1  0.17602220  0.18003516  0.81847765  1
  C  C122  1  0.20038209  0.22737105  0.84685561  1
  C  C123  1  0.23019492  0.28478304  0.81909783  1
  O  O124  1  0.19685621  0.22195669  0.89206053  1
  C  C125  1  0.09751555  0.37635732  0.97175546  1
  Cu  Cu126  1  0.14106136  0.09411212  0.83496756  1
  C  C127  1  0.10075011  0.29377452  0.89570671  1
  H  H128  1  0.11077501  0.28736547  0.85634430  1
  Cu  Cu129  1  0.19723731  0.12815597  0.91948602  1
  C  C130  1  0.07811460  0.23525212  0.92231969  1
  O  O131  1  0.07903462  0.15415031  0.85005031  1
  C  C132  1  0.06451551  0.24665565  0.97195151  1
  C  C133  1  0.06388752  0.16713937  0.89294951  1
  O  O134  1  0.17513130  0.11698521  0.98155255  1
  O  O135  1  0.03167621  0.12257717  0.91390707  1
  O  O136  1  0.15558082  0.47953732  0.92142745  1
  H  H137  1  0.22268383  0.36965049  0.87817827  1
  H  H138  1  0.04868240  0.19726922  0.99375882  1
  H  H139  1  0.09927293  0.43469663  0.98807361  1
  C  C140  1  0.24956744  0.26572173  0.77288155  1
  C  C141  1  0.07141310  0.31654921  0.99580461  1
  Cu  Cu142  1  0.15104524  0.49674993  0.80847128  1
  O  O143  1  0.11736228  0.02262032  0.98112302  1
  H  H144  1  0.24110331  0.20934361  0.75620410  1
  C  C145  1  0.23663659  0.35637096  0.84039306  1
  C  C146  1  0.27111732  0.01277451  0.93649096  1
  O  O147  1  0.49963655  0.35791011  0.83263934  1
  C  C148  1  0.45534948  0.04858856  0.80484963  1
  C  C149  1  0.31826903  0.01874103  0.77020867  1
  O  O150  1  0.47234629  0.34969594  0.95187906  1
  C  C151  1  0.40088981  0.19813948  0.88837780  1
  C  C152  1  0.41268107  0.01686430  0.78181854  1
  H  H153  1  0.48864208  0.13096704  0.85682833  1
  O  O154  1  0.44666412  0.21708801  0.90261647  1
  C  C155  1  0.27024354  0.49304270  0.83687496  1
  O  O156  1  0.36224593  0.21920212  0.90824771  1
  O  O157  1  0.45845503  0.28536859  0.78091544  1
  O  O158  1  0.25119556  0.06011884  0.90717741  1
  C  C159  1  0.45313180  0.10828783  0.83800814  1
  O  O160  1  0.27765626  0.05226809  0.77569890  1
  O  O161  1  0.28356365  0.03286398  0.98011364  1
  Cu  Cu162  1  0.47952968  0.30704122  0.88981890  1
  Cu  Cu163  1  0.35653690  0.04506354  0.99180684  1
  H  H164  1  0.32190089  0.13164477  0.83848068  1
  C  C165  1  0.48151893  0.34302686  0.78797810  1
  C  C166  1  0.36520357  0.04858050  0.79396204  1
  C  C167  1  0.40284368  0.13672527  0.84817417  1
  C  C168  1  0.27908184  0.39960672  0.76758353  1
  C  C169  1  0.26219972  0.41576190  0.81534237  1
  C  C170  1  0.35864014  0.11025510  0.82809474  1
  C  C171  1  0.20783536  0.92057893  0.09569530  1
  C  C172  1  0.16643059  0.89646048  0.06124577  1
  O  O173  1  0.12378895  0.87561027  0.07673789  1
  H  H174  1  0.16199724  0.91561430  0.16221798  1
  Cu  Cu175  1  0.08039037  0.79192900  0.06226248  1
  C  C176  1  0.10744865  0.65377445  0.11085219  1
  O  O177  1  0.10306930  0.72840685  0.11288264  1
  C  C178  1  0.19935454  0.92993220  0.14559525  1
  C  C179  1  0.15898206  0.61972848  0.12200845  1
  O  O180  1  0.07358009  0.60849734  0.10445476  1
  H  H181  1  0.18993366  0.73159880  0.11475063  1
  C  C182  1  0.19912383  0.67186883  0.12476799  1
  O  O183  1  0.04429674  0.94424182  0.14004064  1
  C  C184  1  0.16721380  0.53987455  0.12351676  1
  O  O185  1  0.17643036  0.89995068  0.01537220  1
  C  C186  1  0.21750781  0.51590903  0.12825834  1
  C  C187  1  0.24185585  0.95530638  0.17190432  1
  O  O188  1  0.00049868  0.86988094  0.07417139  1
  O  O189  1  0.06323536  0.81822256  0.24744053  1
  C  C190  1  0.23579355  0.96402017  0.22650674  1
  O  O191  1  0.01423341  0.51319726  0.01443528  1
  O  O192  1  0.18967262  0.95652875  0.24693436  1
  Cu  Cu193  1  0.03378504  0.92160869  0.24473973  1
  C  C194  1  0.24959497  0.64438760  0.12742192  1
  C  C195  1  0.07179245  0.99393405  0.16255963  1
  O  O196  1  0.07076823  0.99464410  0.20878628  1
  O  O197  1  0.09743372  0.75549157  0.00090057  1
  C  C198  1  0.29468974  0.95892676  0.09960208  1
  O  O199  1  0.32884941  0.76526352  0.02376657  1
  C  C200  1  0.34617004  0.97410546  0.08095161  1
  H  H201  1  0.49992652  0.69737395  0.16468907  1
  O  O202  1  0.28197542  0.77844946  0.13491128  1
  C  C203  1  0.28976643  0.96836683  0.15041257  1
  H  H204  1  0.25793725  0.92695962  0.02960048  1
  C  C205  1  0.29033882  0.70992264  0.12741630  1
  C  C206  1  0.26062651  0.56694197  0.12690361  1
  H  H207  1  0.29879458  0.54398654  0.13033179  1
  C  C208  1  0.25352119  0.93455164  0.07023307  1
  O  O209  1  0.44071286  0.74800022  0.10224271  1
  C  C210  1  0.46735661  0.80917771  0.09896385  1
  O  O211  1  0.33586499  0.69209802  0.11067254  1
  Cu  Cu212  1  0.37510197  0.75286357  0.07674813  1
  O  O213  1  0.46117931  0.85382998  0.06569320  1
  O  O214  1  0.35668139  0.96507195  0.03485498  1
  O  O215  1  0.27254779  0.98283943  0.24985316  1
  H  H216  1  0.32534338  0.98164553  0.17244945  1
  H  H217  1  0.03971359  0.81071868  0.36053656  1
  C  C218  1  0.06700872  0.84288590  0.38698855  1
  C  C219  1  0.08630010  0.72003379  0.42836033  1
  O  O220  1  0.05347739  0.69380276  0.40074288  1
  C  C221  1  0.09182235  0.80656343  0.42469197  1
  C  C222  1  0.09813554  0.70174289  0.27235262  1
  C  C223  1  0.06966385  0.92380610  0.38543989  1
  C  C224  1  0.13593719  0.58243463  0.29931494  1
  C  C225  1  0.12099171  0.92592648  0.45862345  1
  C  C226  1  0.14226756  0.65934096  0.28404419  1
  C  C227  1  0.11974972  0.84695408  0.46105043  1
  C  C228  1  0.08735206  0.54725120  0.30044660  1
  H  H229  1  0.18079243  0.68436097  0.28254259  1
  Cu  Cu230  1  0.16889374  0.89599942  0.30262843  1
  O  O231  1  0.02553300  0.91967177  0.30958980  1
  C  C232  1  0.17826410  0.53384848  0.31907900  1
  O  O233  1  0.22124459  0.55949644  0.33369931  1
  C  C234  1  0.09607061  0.96554128  0.42107832  1
  C  C235  1  0.04569740  0.96313143  0.34399247  1
  C  C236  1  0.04757360  0.59231678  0.28430192  1
  O  O237  1  0.10714373  0.68121829  0.46237891  1
  O  O238  1  0.22686321  0.92476160  0.40112638  1
  O  O239  1  0.18561883  0.97684322  0.34061880  1
  C  C240  1  0.20951902  0.98142828  0.38319871  1
  O  O241  1  0.21784544  0.68039705  0.46966604  1
  H  H242  1  0.13903124  0.81368765  0.49056231  1
  Cu  Cu243  1  0.23865617  0.55729981  0.39897781  1
  O  O244  1  0.14613549  0.81928103  0.26074460  1
  C  C245  1  0.04915275  0.66924494  0.27162588  1
  C  C246  1  0.10377488  0.78578159  0.26142170  1
  H  H247  1  0.01444189  0.70810024  0.26584131  1
  C  C248  1  0.24427664  0.63090461  0.48788905  1
  C  C249  1  0.14798416  0.96418540  0.49935031  1
  O  O250  1  0.25442377  0.56732108  0.46400067  1
  C  C251  1  0.14606303  0.63552252  0.65377408  1
  O  O252  1  0.07352645  0.70943304  0.55142914  1
  H  H253  1  0.18022472  0.66727054  0.64678415  1
  C  C254  1  0.10421426  0.65144640  0.62279191  1
  C  C255  1  0.14393186  0.58048706  0.69129667  1
  C  C256  1  0.11061210  0.70793033  0.58227560  1
  O  O257  1  0.14680129  0.75416200  0.57788040  1
  C  C258  1  0.05740375  0.61329018  0.63186221  1
  O  O259  1  0.16327197  0.92394389  0.66169413  1
  Cu  Cu260  1  0.16409348  0.83632512  0.62124424  1
  C  C261  1  0.05589629  0.55700606  0.66907393  1
  C  C262  1  0.09743126  0.54246578  0.69974065  1
  O  O263  1  0.18141562  0.93089116  0.52373967  1
  O  O264  1  0.04201376  0.86659281  0.69556463  1
  O  O265  1  0.23329573  0.83706762  0.61077032  1
  Cu  Cu266  1  0.06652605  0.62702511  0.50454437  1
  C  C267  1  0.18853687  0.56564305  0.72290404  1
  H  H268  1  0.02319831  0.62268383  0.61077170  1
  O  O269  1  0.02267819  0.74367272  0.71122513  1
  O  O270  1  0.02492228  0.55661229  0.53907410  1
  O  O271  1  0.22776977  0.60614609  0.72639061  1
  C  C272  1  0.04505721  0.80639565  0.72000016  1
  C  C273  1  0.17616616  0.99410265  0.65396800  1
  H  H274  1  0.23114147  0.74993940  0.54063689  1
  H  H275  1  0.08336267  0.96937314  0.70287352  1
  C  C276  1  0.01078244  0.50627379  0.67503782  1
  Cu  Cu277  1  0.22998647  0.99447398  0.56301376  1
  O  O278  1  0.00453562  0.99418359  0.74623432  1
  C  C279  1  0.27911667  0.72177841  0.60613405  1
  O  O280  1  0.37021406  0.55172458  0.67125348  1
  C  C281  1  0.29685319  0.57926667  0.55982561  1
  H  H282  1  0.30461378  0.52657453  0.54010335  1
  C  C283  1  0.31015238  0.66676486  0.62836036  1
  C  C284  1  0.35114496  0.53921873  0.63188051  1
  H  H285  1  0.32869308  0.67209843  0.66344960  1
  Cu  Cu286  1  0.27867515  0.88877847  0.71676783  1
  C  C287  1  0.31788380  0.59606851  0.60426760  1
  C  C288  1  0.26414152  0.79183296  0.63208463  1
  C  C289  1  0.25582646  0.71040065  0.55858240  1
  O  O290  1  0.28037230  0.80460289  0.67593639  1
  C  C291  1  0.26739859  0.64083317  0.53751631  1
  O  O292  1  0.32184339  0.95797446  0.74020628  1
  C  C293  1  0.13247785  0.93635427  0.85928653  1
  C  C294  1  0.12551472  0.86987647  0.82798918  1
  H  H295  1  0.17397217  0.80011620  0.87562074  1
  C  C296  1  0.15109437  0.80039447  0.84219952  1
  O  O297  1  0.17394423  0.64726991  0.87758012  1
  C  C298  1  0.13556073  0.73338916  0.82015960  1
  C  C299  1  0.14532443  0.65641042  0.84010902  1
  C  C300  1  0.09594783  0.87847202  0.78612696  1
  O  O301  1  0.12692883  0.60049301  0.81549678  1
  O  O302  1  0.15876009  0.92935728  0.89939777  1
  C  C303  1  0.10155915  0.73959466  0.78016681  1
  H  H304  1  0.07957996  0.93454243  0.77634731  1
  Cu  Cu305  1  0.13029612  0.91192822  0.96291827  1
  O  O306  1  0.08092111  0.83767678  0.94110404  1
  C  C307  1  0.07650275  0.77216050  0.96040107  1
  C  C308  1  0.04139031  0.71445375  0.93600523  1
  Cu  Cu309  1  0.19550479  0.55257365  0.89092677  1
  C  C310  1  0.03707553  0.64603288  0.96190168  1
  C  C311  1  0.08219239  0.80967354  0.76263261  1
  H  H312  1  0.02338805  0.78796461  0.87188892  1
  C  C313  1  0.01893185  0.73021267  0.89091568  1
  H  H314  1  0.08617773  0.68674070  0.75917736  1
  C  C315  1  0.00593794  0.58961783  0.94089153  1
  H  H316  1  0.06022426  0.62985069  0.99440520  1
  O  O317  1  0.18095656  0.50654971  0.75180851  1
  O  O318  1  0.24743179  0.85473612  0.77558448  1
  O  O319  1  0.11011621  0.99921753  0.84814645  1
  H  H320  1  0.31262166  0.89585069  0.99308883  1
  C  C321  1  0.27292023  0.91180843  0.87307268  1
  O  O322  1  0.28226293  0.74295816  0.79621229  1
  C  C323  1  0.30446641  0.87923641  0.95385647  1
  H  H324  1  0.48608887  0.94202608  0.98637584  1
  C  C325  1  0.33596428  0.75303499  0.97635042  1
  O  O326  1  0.35286167  0.69326362  0.96333396  1
  O  O327  1  0.25724181  0.50645539  0.88060972  1
  C  C328  1  0.27021998  0.81011434  0.80620543  1
  Cu  Cu329  1  0.25277347  0.64177585  0.79637687  1
  H  H330  1  0.25693519  0.95098511  0.84483153  1
  O  O331  1  0.28142475  0.54400224  0.80543356  1
  C  C332  1  0.28394208  0.83837413  0.85559251  1
  C  C333  1  0.31723858  0.80621054  0.93618120  1
  C  C334  1  0.30654831  0.78525673  0.88905327  1
  C  C335  1  0.28240703  0.93374296  0.92215736  1
  H  H336  1  0.31280616  0.72438824  0.87968723  1
  H  H337  1  0.41493316  0.96608917  0.75600889  1
  Cu  Cu338  1  0.58833189  0.12781837  0.19081332  1
  O  O339  1  0.61814913  0.12666660  0.12792457  1
  O  O340  1  0.61588228  0.21736871  0.21169876  1
  H  H341  1  0.53615503  0.11954170  0.08893789  1
  Cu  Cu342  1  0.67171208  0.04409870  0.21753431  1
  C  C343  1  0.54179136  0.06589442  0.06761392  1
  C  C344  1  0.62883699  0.06645117  0.10361094  1
  O  O345  1  0.55520247  0.03847775  0.17757641  1
  C  C346  1  0.50295342  0.03851655  0.03702853  1
  O  O347  1  0.73440258  0.08199342  0.19871886  1
  H  H348  1  0.54713529  0.45162297  0.07020892  1
  H  H349  1  0.60007877  0.34053186  0.24243013  1
  O  O350  1  0.67150820  0.03445829  0.11002532  1
  C  C351  1  0.51151881  0.41481354  0.07618636  1
  C  C352  1  0.58980916  0.03048638  0.07179859  1
  C  C353  1  0.64100646  0.20080049  0.24970442  1
  Cu  Cu354  1  0.73527244  0.04441230  0.07983470  1
  C  C355  1  0.51045473  0.47035599  0.15996199  1
  O  O356  1  0.55556248  0.49732147  0.15501684  1
  O  O357  1  0.95137790  0.04347950  0.13938630  1
  C  C358  1  0.96705184  0.15397672  0.20472365  1
  C  C359  1  0.95943669  0.24822326  0.13668995  1
  C  C360  1  0.96830621  0.38847993  0.15714402  1
  C  C361  1  0.97975641  0.29595698  0.22109851  1
  O  O362  1  0.97447826  0.44246872  0.18725221  1
  H  H363  1  0.96237196  0.09361140  0.21819825  1
  C  C364  1  0.96930771  0.30704273  0.17180404  1
  C  C365  1  0.77136627  0.04452525  0.18081709  1
  O  O366  1  0.95152766  0.40493898  0.11384766  1
  H  H367  1  0.94703909  0.26442187  0.09801639  1
  C  C368  1  0.94801769  0.10980860  0.11899677  1
  C  C369  1  0.97872107  0.21788308  0.23491958  1
  C  C370  1  0.96021269  0.17403415  0.15577994  1
  O  O371  1  0.94187699  0.12036402  0.07638456  1
  C  C372  1  0.81358279  0.02422426  0.21552805  1
  H  H373  1  0.98854998  0.34596330  0.24389388  1
  O  O374  1  0.77825032  0.02770774  0.13681448  1
  Cu  Cu375  1  0.98424876  0.45789149  0.06637954  1
  O  O376  1  0.76464680  0.01780731  0.01871186  1
  C  C377  1  0.70033391  0.30220902  0.41256712  1
  C  C378  1  0.67363742  0.31032122  0.36418720  1
  C  C379  1  0.64916578  0.38169844  0.35728925  1
  C  C380  1  0.67148818  0.24709934  0.33148414  1
  H  H381  1  0.68967671  0.19244062  0.33676573  1
  C  C382  1  0.62357801  0.38834355  0.31363882  1
  H  H383  1  0.65038540  0.42731351  0.38490174  1
  C  C384  1  0.64400257  0.25929146  0.28769691  1
  O  O385  1  0.71316920  0.35779249  0.43811823  1
  O  O386  1  0.71179565  0.23415181  0.42666833  1
  C  C387  1  0.59315216  0.46022883  0.30616995  1
  C  C388  1  0.62064187  0.33068363  0.27835692  1
  O  O389  1  0.56764607  0.45922940  0.26369963  1
  O  O390  1  0.65563538  0.13275240  0.26085496  1
  Cu  Cu391  1  0.74592762  0.19902247  0.47892681  1
  O  O392  1  0.74417289  0.01953311  0.40143746  1
  O  O393  1  0.57826408  0.40328206  0.48572174  1
  Cu  Cu394  1  0.50232638  0.42234999  0.26406150  1
  Cu  Cu395  1  0.50190528  0.26610289  0.45590224  1
  O  O396  1  0.55968329  0.27951857  0.48808474  1
  C  C397  1  0.98079593  0.48174552  0.47953427  1
  O  O398  1  0.83380268  0.08776716  0.49176946  1
  H  H399  1  0.89788222  0.49289391  0.47762641  1
  C  C400  1  0.87754119  0.42744642  0.39027016  1
  O  O401  1  0.97800002  0.13301026  0.29934663  1
  H  H402  1  0.79686239  0.10181154  0.27538075  1
  C  C403  1  0.93068366  0.43426461  0.41368897  1
  C  C404  1  0.93190450  0.46929223  0.45995132  1
  C  C405  1  0.87310848  0.05881663  0.33969548  1
  C  C406  1  0.98951742  0.20005098  0.28572135  1
  C  C407  1  0.97134182  0.18565589  0.48297753  1
  C  C408  1  0.84121419  0.27181173  0.45929419  1
  H  H409  1  0.96528357  0.37853232  0.35337304  1
  C  C410  1  0.92239318  0.19569494  0.46030933  1
  O  O411  1  0.82661325  0.23309733  0.42180192  1
  H  H412  1  0.91315286  0.16385726  0.42744553  1
  O  O413  1  0.84379470  0.45315044  0.42310953  1
  Cu  Cu414  1  0.78216475  0.39808868  0.43233350  1
  O  O415  1  0.91387129  0.04095472  0.36309063  1
  O  O416  1  0.81290664  0.32500609  0.47830660  1
  C  C417  1  0.88921874  0.24908041  0.48067545  1
  O  O418  1  0.87123604  0.41096343  0.34924912  1
  C  C419  1  0.97236733  0.40746785  0.38883288  1
  Cu  Cu420  1  0.98193552  0.09623017  0.36338282  1
  O  O421  1  0.98581238  0.07602312  0.43348489  1
  Cu  Cu422  1  0.82303132  0.12597049  0.42560876  1
  C  C423  1  0.86246883  0.03140394  0.28955809  1
  O  O424  1  0.84332733  0.10973956  0.35731058  1
  C  C425  1  0.81970557  0.05507917  0.26240709  1
  O  O426  1  0.99252947  0.48852073  0.29240974  1
  C  C427  1  0.60896453  0.41403256  0.58399738  1
  C  C428  1  0.60702464  0.27296325  0.63372766  1
  C  C429  1  0.62721096  0.33860251  0.65787139  1
  H  H430  1  0.57120466  0.22530200  0.57002800  1
  C  C431  1  0.59385988  0.34608652  0.56096294  1
  C  C432  1  0.58884932  0.27476720  0.58666588  1
  C  C433  1  0.60348250  0.19425300  0.65609630  1
  O  O434  1  0.58677725  0.13936790  0.63491818  1
  C  C435  1  0.62885880  0.40819333  0.63213737  1
  O  O436  1  0.62332951  0.18339545  0.69991283  1
  Cu  Cu437  1  0.66800302  0.10766299  0.71373970  1
  H  H438  1  0.63948570  0.33005034  0.69744098  1
  O  O439  1  0.70417581  0.01077003  0.70473857  1
  H  H440  1  0.60695430  0.47290837  0.56618918  1
  C  C441  1  0.57600226  0.34658561  0.50908186  1
  C  C442  1  0.64838927  0.48053121  0.65549579  1
  O  O443  1  0.67186586  0.48681492  0.69323990  1
  C  C444  1  0.51280336  0.49000208  0.66981010  1
  O  O445  1  0.99792820  0.00327394  0.55696850  1
  Cu  Cu446  1  0.92297950  0.47218798  0.60590023  1
  C  C447  1  0.98597118  0.02584674  0.59968742  1
  O  O448  1  0.82528265  0.21905736  0.70329034  1
  O  O449  1  0.77634054  0.45917263  0.59945773  1
  H  H450  1  0.79427234  0.00841024  0.72203076  1
  C  C451  1  0.90421016  0.29058704  0.52291909  1
  O  O452  1  0.88354492  0.02675124  0.73781192  1
  H  H453  1  0.91301935  0.05100860  0.52586313  1
  C  C454  1  0.84442502  0.16178636  0.61254302  1
  H  H455  1  0.81049022  0.19612670  0.61639071  1
  C  C456  1  0.96546176  0.32328090  0.58813014  1
  O  O457  1  0.93068124  0.36837378  0.60872874  1
  C  C458  1  0.93788447  0.07292649  0.60162990  1
  C  C459  1  0.82172768  0.12520806  0.53072778  1
  O  O460  1  0.90233747  0.18766319  0.73467788  1
  C  C461  1  0.85959905  0.12176786  0.56953170  1
  O  O462  1  0.85579263  0.46930517  0.62760025  1
  H  H463  1  0.95232518  0.10236014  0.67655496  1
  O  O464  1  0.77881153  0.15862330  0.53426508  1
  C  C465  1  0.92501494  0.11007780  0.64517793  1
  C  C466  1  0.86474735  0.18587603  0.69947526  1
  C  C467  1  0.95151103  0.27822321  0.54519709  1
  C  C468  1  0.87895698  0.14965007  0.65081941  1
  C  C469  1  0.98614465  0.22551272  0.52488589  1
  H  H470  1  0.88138256  0.33669015  0.53838218  1
  C  C471  1  0.90576302  0.08018280  0.56129403  1
  C  C472  1  0.72976254  0.07691416  0.85311779  1
  O  O473  1  0.70197523  0.11780407  0.77391997  1
  C  C474  1  0.69072486  0.08449598  0.81519548  1
  O  O475  1  0.53744000  0.42312523  0.97530696  1
  O  O476  1  0.64802295  0.05442998  0.82222521  1
  C  C477  1  0.71597972  0.03861715  0.89798218  1
  O  O478  1  0.54787067  0.03684169  0.80563836  1
  C  C479  1  0.74992501  0.04070765  0.93647863  1
  C  C480  1  0.52415361  0.45795524  0.75578168  1
  H  H481  1  0.53998915  0.47119624  0.79341954  1
  C  C482  1  0.50127685  0.38458424  0.98593103  1
  C  C483  1  0.50562563  0.01582322  0.78560069  1
  H  H484  1  0.67632890  0.01688275  0.90058026  1
  C  C485  1  0.73534819  0.00384830  0.98287104  1
  H  H486  1  0.82090149  0.08245338  0.96250335  1
  O  O487  1  0.88135185  0.14771283  0.83357457  1
  O  O488  1  0.89560695  0.12692095  0.91305634  1
  Cu  Cu489  1  0.91426881  0.10114204  0.77794320  1
  O  O490  1  0.98475338  0.11542334  0.75382937  1
  C  C491  1  0.77951381  0.10276644  0.84323081  1
  C  C492  1  0.81308135  0.10065380  0.88294676  1
  O  O493  1  0.98011850  0.45919519  0.94833680  1
  C  C494  1  0.86596383  0.12487058  0.87523870  1
  H  H495  1  0.78874101  0.12175997  0.80472404  1
  Cu  Cu496  1  0.96144246  0.11283891  0.91131173  1
  C  C497  1  0.79705491  0.07822469  0.93003646  1
  O  O498  1  0.96271940  0.00753283  0.92958471  1
  C  C499  1  0.55361241  0.90445773  0.19040605  1
  C  C500  1  0.57125884  0.84228931  0.21884436  1
  H  H501  1  0.67809665  0.66272768  0.09019664  1
  C  C502  1  0.54891705  0.77269545  0.20959708  1
  H  H503  1  0.63654626  0.93300639  0.05553329  1
  C  C504  1  0.59985286  0.96087314  0.04809726  1
  Cu  Cu505  1  0.58697279  0.55435433  0.20280157  1
  C  C506  1  0.71700640  0.65338455  0.10328860  1
  C  C507  1  0.72707756  0.60620303  0.14357890  1
  O  O508  1  0.63866016  0.58747659  0.16179681  1
  C  C509  1  0.68566211  0.57207482  0.17471977  1
  C  C510  1  0.52079565  0.89313661  0.15011995  1
  C  C511  1  0.51337896  0.75541585  0.17207341  1
  O  O512  1  0.54854244  0.63714418  0.22510232  1
  C  C513  1  0.50353272  0.81865435  0.14235092  1
  O  O514  1  0.69462537  0.53296018  0.21110170  1
  C  C515  1  0.56499772  0.70342188  0.24045889  1
  H  H516  1  0.50624565  0.94212118  0.12897581  1
  C  C517  1  0.56115198  0.93484473  0.01651651  1
  O  O518  1  0.70373176  0.76352611  0.02969715  1
  C  C519  1  0.57343456  0.98203563  0.20181597  1
  O  O520  1  0.61164575  0.99117568  0.22980751  1
  Cu  Cu521  1  0.69372194  0.86161499  0.00328368  1
  C  C522  1  0.51255284  0.96955332  0.01186948  1
  C  C523  1  0.75145111  0.74318905  0.03774144  1
  C  C524  1  0.75937152  0.68552009  0.07869036  1
  C  C525  1  0.94406768  0.80993303  0.01808435  1
  H  H526  1  0.90997465  0.69605046  0.02448303  1
  O  O527  1  0.96378997  0.57810887  0.24422292  1
  C  C528  1  0.86904709  0.62761444  0.15774696  1
  O  O529  1  0.96594543  0.75623021  0.09426009  1
  H  H530  1  0.78502515  0.55370203  0.19622672  1
  H  H531  1  0.84302369  0.94286704  0.16265184  1
  H  H532  1  0.84189789  0.70339411  0.08094842  1
  O  O533  1  0.96668849  0.87846214  0.23357021  1
  C  C534  1  0.97123654  0.81157951  0.06380776  1
  O  O535  1  0.92103974  0.86908192  0.16382695  1
  C  C536  1  0.92800105  0.89419417  0.20764326  1
  C  C537  1  0.88942460  0.94595873  0.22808708  1
  Cu  Cu538  1  0.98069670  0.95358689  0.11188264  1
  O  O539  1  0.78757959  0.76978801  0.01751930  1
  C  C540  1  0.80989036  0.67493438  0.09516404  1
  O  O541  1  0.90575239  0.66614397  0.13791959  1
  C  C542  1  0.77617355  0.58945144  0.16036848  1
  C  C543  1  0.81649614  0.62882874  0.13594361  1
  Cu  Cu544  1  0.92695825  0.51837280  0.19623419  1
  C  C545  1  0.84822175  0.96858598  0.19800717  1
  Cu  Cu546  1  0.92055705  0.76678780  0.14628909  1
  O  O547  1  0.87380356  0.58823538  0.19542696  1
  C  C548  1  0.91664335  0.74636258  0.00270880  1
  H  H549  1  0.97205259  0.92727502  0.00052644  1
  O  O550  1  0.59651430  0.70982109  0.27244206  1
  O  O551  1  0.58659007  0.50985734  0.33540117  1
  H  H552  1  0.59820390  0.84616035  0.25106580  1
  C  C553  1  0.72575574  0.99301803  0.43191475  1
  H  H554  1  0.93205469  0.95860153  0.29644536  1
  C  C555  1  0.89909187  0.97715080  0.27506061  1
  C  C556  1  0.99567318  0.55118109  0.27756860  1
  C  C557  1  0.70046053  0.73204933  0.60893972  1
  O  O558  1  0.66208781  0.68772219  0.60024845  1
  Cu  Cu559  1  0.61851716  0.64754868  0.64348335  1
  O  O560  1  0.69363202  0.79854828  0.61491222  1
  O  O561  1  0.56709997  0.62188331  0.68453635  1
  O  O562  1  0.64176303  0.54163797  0.62891906  1
  H  H563  1  0.72511038  0.58237591  0.59731924  1
  C  C564  1  0.56361172  0.57820157  0.72483755  1
  C  C565  1  0.53268207  0.50764941  0.71666570  1
  C  C566  1  0.69860471  0.95082282  0.72942526  1
  H  H567  1  0.52071493  0.52559014  0.63775525  1
  C  C568  1  0.74525883  0.90944718  0.74262429  1
  O  O569  1  0.50685702  0.97457998  0.74957389  1
  C  C570  1  0.81085133  0.50008575  0.61399078  1
  C  C571  1  0.98237012  0.52606259  0.52645783  1
  C  C572  1  0.80622839  0.58515495  0.61690477  1
  C  C573  1  0.79185825  0.94775889  0.73550818  1
  C  C574  1  0.75754781  0.61829042  0.60576710  1
  C  C575  1  0.83924957  0.91001070  0.74471076  1
  O  O576  1  0.87967294  0.82070438  0.66046914  1
  C  C577  1  0.88865691  0.75459795  0.65599947  1
  C  C578  1  0.75502682  0.69755537  0.61270881  1
  O  O579  1  0.94315366  0.53211493  0.55242283  1
  C  C580  1  0.84374944  0.70722065  0.63550221  1
  H  H581  1  0.79364577  0.80490235  0.63237880  1
  C  C582  1  0.85088375  0.62908809  0.62828227  1
  C  C583  1  0.88650471  0.95479661  0.73826172  1
  O  O584  1  0.92612397  0.91305808  0.73010447  1
  H  H585  1  0.89117779  0.60700053  0.63475301  1
  Cu  Cu586  1  0.95509449  0.72741619  0.73607468  1
  O  O587  1  0.93145057  0.72051394  0.67034755  1
  C  C588  1  0.79581147  0.74183430  0.62959455  1
  Cu  Cu589  1  0.97950842  0.93946974  0.68918621  1
  O  O590  1  0.96908739  0.52101554  0.65383200  1
  O  O591  1  0.69391742  0.96489607  0.98525185  1
  O  O592  1  0.54696732  0.84718910  0.95344238  1
  O  O593  1  0.57445075  0.60341417  0.76427864  1
  C  C594  1  0.57610110  0.86879882  0.98521455  1
  Cu  Cu595  1  0.60640798  0.99441911  0.77723359  1
  O  O596  1  0.62109230  0.83223264  0.99190607  1
  O  O597  1  0.65668945  0.92926213  0.75047288  1
  H  H598  1  0.70528354  0.80103444  0.76982918  1
  C  C599  1  0.74016974  0.83560687  0.76351796  1
  H  H600  1  0.95217251  0.56005261  0.88349178  1
  C  C601  1  0.99808124  0.51418517  0.96903871  1
  C  C602  1  0.89650536  0.75560267  0.95578441  1
  Cu  Cu603  1  0.86577665  0.64292877  0.83983977  1
  H  H604  1  0.87142495  0.79802473  0.76102236  1
  O  O605  1  0.97294265  0.73962077  0.79859728  1
  C  C606  1  0.78830968  0.71814965  0.78416430  1
  O  O607  1  0.75052592  0.68445172  0.79564788  1
  C  C608  1  0.97915637  0.60335936  0.89727751  1
  O  O609  1  0.84656149  0.70333803  0.89029745  1
  C  C610  1  0.78704012  0.80053300  0.76854478  1
  C  C611  1  0.98844464  0.67108106  0.87273410  1
  O  O612  1  0.92828913  0.63335991  0.81267891  1
  O  O613  1  0.92291725  0.94477195  0.86782989  1
  C  C614  1  0.86277464  0.69164579  0.93502317  1
  C  C615  1  0.94831438  0.87782685  0.98901052  1
  H  H616  1  0.88567299  0.81854191  0.88566093  1
  C  C617  1  0.93565299  0.94853520  0.91079452  1
  C  C618  1  0.92702100  0.88143084  0.94247690  1
  O  O619  1  0.83385852  0.68334719  0.78485670  1
  C  C620  1  0.89926310  0.81937452  0.92366829  1
  C  C621  1  0.96156662  0.68443385  0.82414483  1
  O  O622  1  0.85665227  0.63222083  0.95569421  1
  C  C623  1  0.83576474  0.83156391  0.75792586  1
