# generated using pymatgen
data_ZnH10(C7N2)2
_symmetry_space_group_name_H-M   'P 1'
_cell_length_a   21.28418664
_cell_length_b   17.84802432
_cell_length_c   14.22689681
_cell_angle_alpha   90.00000000
_cell_angle_beta   90.00000000
_cell_angle_gamma   90.00000000
_symmetry_Int_Tables_number   1
_chemical_formula_structural   ZnH10(C7N2)2
_chemical_formula_sum   'Zn18 H180 C252 N72'
_cell_volume   5404.52324410
_cell_formula_units_Z   18
loop_
 _symmetry_equiv_pos_site_id
 _symmetry_equiv_pos_as_xyz
  1  'x, y, z'
loop_
 _atom_site_type_symbol
 _atom_site_label
 _atom_site_symmetry_multiplicity
 _atom_site_fract_x
 _atom_site_fract_y
 _atom_site_fract_z
 _atom_site_occupancy
  Zn  Zn0  1  0.10581869  0.39208475  0.41296033  1
  H  H1  1  0.10618708  0.32896620  0.01217657  1
  N  N2  1  0.17202827  0.32021133  0.46627553  1
  H  H3  1  0.21941105  0.39996842  0.07281697  1
  C  C4  1  0.04867222  0.30386613  0.23282532  1
  H  H5  1  0.11170408  0.01583597  0.37287331  1
  H  H6  1  0.13251186  0.36376631  0.17637450  1
  H  H7  1  0.11008780  0.17871210  0.08255514  1
  N  N8  1  0.04847666  0.32075305  0.33142771  1
  N  N9  1  0.14011538  0.45779016  0.29914648  1
  C  C10  1  0.01453151  0.27140711  0.04783176  1
  C  C11  1  0.05919526  0.10547801  0.17482225  1
  C  C12  1  0.16591118  0.14827356  0.20620534  1
  H  H13  1  0.20874022  0.26135054  0.10081124  1
  C  C14  1  0.16732456  0.09362402  0.28920123  1
  C  C15  1  0.24753144  0.16873534  0.29414003  1
  C  C16  1  0.11194736  0.04999788  0.31073242  1
  C  C17  1  0.07249328  0.30978412  0.06854638  1
  C  C18  1  0.16901908  0.24514827  0.45786855  1
  C  C19  1  0.05750750  0.05593860  0.25522441  1
  C  C20  1  0.04371298  0.46510042  0.19815002  1
  C  C21  1  0.08889954  0.33010603  0.16033034  1
  C  C22  1  0.11360033  0.14222918  0.14411180  1
  C  C23  1  0.21531841  0.28498851  0.02880315  1
  N  N24  1  0.21344198  0.19644516  0.21825590  1
  N  N25  1  0.21790459  0.11542262  0.34008977  1
  C  C26  1  0.10569790  0.48014617  0.21788306  1
  Zn  Zn27  1  0.22947662  0.08521362  0.48061731  1
  H  H28  1  0.13389134  0.21605024  0.41612601  1
  H  H29  1  0.01489069  0.11034298  0.13554356  1
  H  H30  1  0.15997626  0.02082983  0.09653827  1
  C  C31  1  0.20033211  0.48554221  0.27650627  1
  H  H32  1  0.01383330  0.42515736  0.24033851  1
  H  H33  1  0.01392913  0.03608149  0.27833086  1
  H  H34  1  0.24068926  0.46581937  0.31995859  1
  N  N35  1  0.21942864  0.20734418  0.49332541  1
  C  C36  1  0.21742429  0.36225552  0.00989326  1
  C  C37  1  0.24386148  0.09107518  0.69199773  1
  H  H38  1  0.15132648  0.05720776  0.70284887  1
  C  C39  1  0.07576524  0.08389914  0.60122560  1
  H  H40  1  0.15201432  0.42035011  0.64072046  1
  H  H41  1  0.11297324  0.26168817  0.82025611  1
  H  H42  1  0.14314618  0.46118972  0.81244399  1
  H  H43  1  0.02993187  0.01429661  0.94480690  1
  C  C44  1  0.02818947  0.07036844  0.66767812  1
  N  N45  1  0.19138024  0.07238415  0.73648830  1
  H  H46  1  0.17964811  0.27032720  0.70681293  1
  H  H47  1  0.03477199  0.36415883  0.79663656  1
  N  N48  1  0.15809060  0.00710808  0.51473725  1
  C  C49  1  0.06442841  0.25181588  0.84228631  1
  C  C50  1  0.03605216  0.18231596  0.86609060  1
  N  N51  1  0.06761808  0.11351596  0.89090351  1
  H  H52  1  0.08838936  0.13918234  0.57086368  1
  N  N53  1  0.21431879  0.15210324  0.95681062  1
  C  C54  1  0.01902673  0.07183667  0.91832326  1
  C  C55  1  0.10877948  0.01592961  0.57608283  1
  Zn  Zn56  1  0.16088493  0.08332473  0.87232747  1
  C  C57  1  0.22002967  0.23037637  0.95250470  1
  C  C58  1  0.22057893  0.28075567  0.75524980  1
  C  C59  1  0.21729669  0.33894160  0.84118861  1
  C  C60  1  0.21621942  0.38752706  0.91567295  1
  C  C61  1  0.02140577  0.31111598  0.83146926  1
  C  C62  1  0.05436047  0.44847591  0.61181594  1
  C  C63  1  0.10673596  0.43946963  0.67240113  1
  H  H64  1  0.21767833  0.44774767  0.89534433  1
  C  C65  1  0.21438207  0.26403944  0.85853597  1
  C  C66  1  0.01647253  0.00030562  0.71065995  1
  C  C67  1  0.09939881  0.46149236  0.76813783  1
  N  N68  1  0.04636862  0.43565685  0.51675137  1
  C  C69  1  0.04143343  0.48960574  0.80519740  1
  H  H70  1  0.00223956  0.11932089  0.69739361  1
  H  H71  1  0.24203433  0.44628324  0.67943801  1
  C  C72  1  0.22368792  0.34071631  0.51482205  1
  H  H73  1  0.24125321  0.46292125  0.52063538  1
  C  C74  1  0.01497459  0.50194843  0.12021104  1
  H  H75  1  0.18201535  0.61355698  0.06016144  1
  C  C76  1  0.03434396  0.55672296  0.05091803  1
  H  H77  1  0.09838132  0.86214982  0.38363578  1
  C  C78  1  0.14773950  0.56979874  0.06228171  1
  H  H79  1  0.22008687  0.81094945  0.19915425  1
  H  H80  1  0.19140504  0.69354544  0.37871165  1
  C  C81  1  0.05420760  0.73884337  0.21177062  1
  C  C82  1  0.17205512  0.96217532  0.08290932  1
  H  H83  1  0.06479407  0.85355724  0.10779922  1
  C  C84  1  0.19252014  0.91605308  0.15580976  1
  H  H85  1  0.20302787  0.93565049  0.22870052  1
  C  C86  1  0.05818232  0.66729052  0.25116922  1
  H  H87  1  0.03991803  0.74318795  0.13957525  1
  H  H88  1  0.19483089  0.73710802  0.05125855  1
  C  C89  1  0.07674269  0.66762532  0.34696508  1
  H  H90  1  0.19437154  0.69586823  0.20761335  1
  C  C91  1  0.02579465  0.88801949  0.08003964  1
  N  N92  1  0.08402955  0.61015580  0.40480592  1
  C  C93  1  0.19741992  0.83875747  0.13804281  1
  C  C94  1  0.09428279  0.74170839  0.39946227  1
  C  C95  1  0.23830947  0.67816110  0.24360327  1
  C  C96  1  0.06784593  0.80729948  0.25746843  1
  H  H97  1  0.19964059  0.90647872  0.45788924  1
  H  H98  1  0.06238783  0.86012072  0.22045087  1
  C  C99  1  0.18326173  0.79687154  0.05553029  1
  C  C100  1  0.08896885  0.81019870  0.35121886  1
  C  C101  1  0.08595185  0.59686062  0.02237187  1
  C  C102  1  0.23430187  0.67387650  0.33994958  1
  H  H103  1  0.01176665  0.91297425  0.49178634  1
  C  C104  1  0.14604346  0.52417250  0.15843605  1
  H  H105  1  0.04586261  0.61811875  0.20736802  1
  N  N106  1  0.10936191  0.71307600  0.48412788  1
  C  C107  1  0.10202364  0.63570456  0.48642736  1
  H  H108  1  0.00859313  0.95195745  0.21101311  1
  N  N109  1  0.20287780  0.52073021  0.19499056  1
  H  H110  1  0.17299088  0.53493459  0.00591992  1
  H  H111  1  0.10024305  0.64179178  0.88430145  1
  H  H112  1  0.17945692  0.57252265  0.70817983  1
  H  H113  1  0.03703674  0.83393884  0.94619944  1
  H  H114  1  0.11040019  0.71043946  0.97728162  1
  N  N115  1  0.15282074  0.83743560  0.88393810  1
  Zn  Zn116  1  0.17663422  0.74644857  0.79247451  1
  H  H117  1  0.11598578  0.59586279  0.53851199  1
  N  N118  1  0.10163604  0.72409803  0.71367484  1
  C  C119  1  0.14106103  0.90823517  0.84896526  1
  C  C120  1  0.08978381  0.93887968  0.61202253  1
  N  N121  1  0.20911000  0.76579991  0.66862170  1
  N  N122  1  0.14226512  0.96689048  0.90887926  1
  H  H123  1  0.14700720  0.92373565  0.77483142  1
  H  H124  1  0.01708619  0.65213664  0.73367947  1
  N  N125  1  0.22969426  0.66529810  0.86266859  1
  H  H126  1  0.03119653  0.87906712  0.71819536  1
  Zn  Zn127  1  0.13429766  0.77804896  0.58887182  1
  C  C128  1  0.05806617  0.68768906  0.72610469  1
  C  C129  1  0.16303621  0.93224016  0.50350187  1
  N  N130  1  0.12387015  0.89007067  0.55697984  1
  C  C131  1  0.21609792  0.55070791  0.75520736  1
  C  C132  1  0.04270831  0.93106724  0.68330351  1
  C  C133  1  0.16204583  0.84534759  0.97904315  1
  C  C134  1  0.08149897  0.66172759  0.95263045  1
  C  C135  1  0.15744830  0.92761616  0.99449470  1
  C  C136  1  0.00743736  0.87451882  0.98878761  1
  C  C137  1  0.01457140  0.68622503  0.92156948  1
  H  H138  1  0.03621495  0.50371608  0.87909310  1
  C  C139  1  0.23653006  0.59295507  0.83654926  1
  H  H140  1  0.00841556  0.73300130  0.87083819  1
  C  C141  1  0.25254403  0.13370813  0.02548773  1
  N  N142  1  0.28395819  0.10144712  0.08007762  1
  C  C143  1  0.47475849  0.30383396  0.20280351  1
  H  H144  1  0.35856085  0.34021705  0.37995871  1
  C  C145  1  0.43371977  0.19043415  0.27173035  1
  H  H146  1  0.35568034  0.35657823  0.01924102  1
  H  H147  1  0.43094425  0.12826537  0.26899119  1
  H  H148  1  0.46606248  0.33311200  0.01126943  1
  H  H149  1  0.30806241  0.13861749  0.12298775  1
  C  C150  1  0.43184643  0.34602320  0.26509103  1
  H  H151  1  0.35758611  0.20474343  0.37953916  1
  C  C152  1  0.48183451  0.42729993  0.18238651  1
  C  C153  1  0.39285136  0.31044615  0.33267937  1
  N  N154  1  0.44165915  0.42463243  0.25576312  1
  C  C155  1  0.39329336  0.23238865  0.33024984  1
  C  C156  1  0.48280482  0.22392741  0.21817834  1
  H  H157  1  0.29070969  0.20219961  0.31651818  1
  H  H158  1  0.49240372  0.30814280  0.39292269  1
  H  H159  1  0.27091875  0.04631071  0.24546189  1
  N  N160  1  0.43226209  0.03157898  0.03532735  1
  H  H161  1  0.38392941  0.03384960  0.03651729  1
  C  C162  1  0.47396803  0.08896831  0.04158264  1
  H  H163  1  0.44993399  0.14398362  0.05226928  1
  N  N164  1  0.47807889  0.45608738  0.50342242  1
  C  C165  1  0.46149425  0.28905767  0.95902645  1
  H  H166  1  0.35249183  0.44327855  0.56913904  1
  H  H167  1  0.33724953  0.20406598  0.58495336  1
  N  N168  1  0.26998293  0.10429088  0.62362471  1
  C  C169  1  0.31708477  0.25771537  0.56993914  1
  H  H170  1  0.35935213  0.47994698  0.92563465  1
  H  H171  1  0.32742512  0.40531850  0.78399775  1
  H  H172  1  0.39507919  0.01104691  0.54930195  1
  H  H173  1  0.43260537  0.18032202  0.77945264  1
  C  C174  1  0.49266413  0.10237293  0.71215095  1
  H  H175  1  0.38866098  0.22017413  0.88367686  1
  C  C176  1  0.43680879  0.07952918  0.65930184  1
  H  H177  1  0.39093284  0.10728887  0.66151109  1
  C  C178  1  0.39959013  0.26835882  0.93308529  1
  C  C179  1  0.48187204  0.16042012  0.78171331  1
  C  C180  1  0.25546380  0.26431240  0.53211053  1
  C  C181  1  0.26051539  0.40671978  0.53218707  1
  C  C182  1  0.30341915  0.46079488  0.79754681  1
  C  C183  1  0.32377184  0.39587941  0.56318255  1
  H  H184  1  0.39673326  0.31973921  0.60107249  1
  C  C185  1  0.35082199  0.32535667  0.58606937  1
  H  H186  1  0.26880726  0.26370754  0.73161108  1
  C  C187  1  0.49207979  0.38088844  0.52304305  1
  C  C188  1  0.31876774  0.49720803  0.87982854  1
  C  C189  1  0.47631566  0.49054263  0.59240076  1
  C  C190  1  0.43836481  0.02574905  0.58710579  1
  C  C191  1  0.25211422  0.48493905  0.73817096  1
  N  N192  1  0.49135018  0.44697805  0.66312785  1
  H  H193  1  0.30068012  0.30080337  0.95258834  1
  C  C194  1  0.34965154  0.30781490  0.97112696  1
  H  H195  1  0.42339766  0.84230450  0.35786648  1
  H  H196  1  0.34479530  0.77750084  0.30082544  1
  H  H197  1  0.31109869  0.96700290  0.11351738  1
  C  C198  1  0.30224170  0.96376225  0.35446730  1
  H  H199  1  0.44334941  0.97524039  0.02351085  1
  C  C200  1  0.32052252  0.88489152  0.36231208  1
  C  C201  1  0.28324173  0.64439597  0.39465551  1
  H  H202  1  0.33333326  0.82518249  0.13112617  1
  H  H203  1  0.39421282  0.72331267  0.12913550  1
  N  N204  1  0.37691213  0.57975431  0.40327563  1
  C  C205  1  0.46974346  0.89173266  0.23588905  1
  H  H206  1  0.48700821  0.72255182  0.24462790  1
  C  C207  1  0.31259725  0.94505140  0.18709758  1
  C  C208  1  0.46882198  0.84917040  0.32082335  1
  C  C209  1  0.33215426  0.83671985  0.28485676  1
  C  C210  1  0.34028147  0.61812502  0.33996411  1
  H  H211  1  0.42710204  0.91937528  0.21248225  1
  H  H212  1  0.26433405  0.87152757  0.01420290  1
  C  C213  1  0.29251614  0.65558845  0.19153208  1
  H  H214  1  0.38144035  0.59996851  0.19850930  1
  C  C215  1  0.32479533  0.86497333  0.19353614  1
  C  C216  1  0.34214188  0.62038304  0.23733415  1
  N  N217  1  0.32192204  0.86739091  0.45953671  1
  C  C218  1  0.49102121  0.70366221  0.16992184  1
  N  N219  1  0.28690364  0.99206367  0.44553434  1
  C  C220  1  0.29368489  0.99193631  0.26302543  1
  C  C221  1  0.44103289  0.70118328  0.10485997  1
  H  H222  1  0.29104298  0.65456153  0.11392604  1
  C  C223  1  0.35100280  0.59232940  0.48843488  1
  Zn  Zn224  1  0.44590718  0.50299609  0.37387338  1
  N  N225  1  0.29546569  0.62978708  0.48796420  1
  C  C226  1  0.45211659  0.66832866  0.01541759  1
  C  C227  1  0.46755000  0.79589769  0.60574321  1
  H  H228  1  0.48348396  0.84584244  0.64970027  1
  H  H229  1  0.36800413  0.82445148  0.59135271  1
  H  H230  1  0.46099098  0.54908477  0.59805654  1
  H  H231  1  0.41029372  0.66805448  0.97061289  1
  C  C232  1  0.40788236  0.95348124  0.79276595  1
  H  H233  1  0.36270221  0.65162449  0.79769741  1
  C  C234  1  0.39762497  0.85084308  0.91305137  1
  H  H235  1  0.30025430  0.93458055  0.57752173  1
  C  C236  1  0.37005805  0.91797397  0.86406532  1
  C  C237  1  0.39632679  0.67956278  0.74773677  1
  N  N238  1  0.30656856  0.74339370  0.71606929  1
  H  H239  1  0.28861966  0.77358789  0.57999698  1
  C  C240  1  0.37153326  0.74200708  0.69333720  1
  C  C241  1  0.39909030  0.78210968  0.62317570  1
  C  C242  1  0.46689298  0.92144329  0.77773314  1
  N  N243  1  0.35477213  0.83092685  0.98221120  1
  C  C244  1  0.28666009  0.56567538  0.90416087  1
  H  H245  1  0.36660923  0.56514277  0.55691225  1
  C  C246  1  0.45680024  0.66173679  0.74120994  1
  N  N247  1  0.31449122  0.93088678  0.90699284  1
  C  C248  1  0.45718857  0.81839963  0.89397069  1
  C  C249  1  0.26934435  0.68199126  0.93360041  1
  C  C250  1  0.30575790  0.93048457  0.50075417  1
  N  N251  1  0.30625632  0.62333339  0.95727846  1
  C  C252  1  0.26886819  0.76279538  0.65006433  1
  C  C253  1  0.30682199  0.87749667  0.97007161  1
  C  C254  1  0.49471590  0.99096730  0.55612193  1
  H  H255  1  0.45814277  0.81995852  0.53569249  1
  H  H256  1  0.47340995  0.76760502  0.93647966  1
  C  C257  1  0.49286374  0.85769108  0.82378090  1
  H  H258  1  0.38900227  0.99642819  0.74408878  1
  H  H259  1  0.27675171  0.73753746  0.97031394  1
  C  C260  1  0.59377696  0.41547967  0.30448094  1
  H  H261  1  0.65785876  0.32772634  0.32509982  1
  Zn  Zn262  1  0.59687623  0.03614473  0.02942601  1
  C  C263  1  0.61954105  0.13858491  0.34683700  1
  N  N264  1  0.65645316  0.29563153  0.14103267  1
  H  H265  1  0.68278854  0.18951950  0.44456487  1
  H  H266  1  0.53720706  0.08303340  0.28107301  1
  N  N267  1  0.68458453  0.05026336  0.06077633  1
  H  H268  1  0.50828146  0.47760466  0.15990409  1
  N  N269  1  0.72882705  0.20230464  0.16116626  1
  C  C270  1  0.66998293  0.21913628  0.14381287  1
  C  C271  1  0.58362275  0.07460023  0.31488184  1
  N  N272  1  0.72086032  0.02954998  0.21399306  1
  H  H273  1  0.71675918  0.44578068  0.11199425  1
  C  C274  1  0.71851540  0.32377238  0.15766703  1
  H  H275  1  0.59412888  0.19041077  0.33829318  1
  Zn  Zn276  1  0.58354399  0.34495801  0.07042041  1
  C  C277  1  0.72101107  0.08723816  0.44119734  1
  C  C278  1  0.70857218  0.43753721  0.32653663  1
  C  C279  1  0.67488060  0.14077362  0.40182623  1
  C  C280  1  0.65404845  0.38843512  0.32313432  1
  H  H281  1  0.55319616  0.38039637  0.29444465  1
  N  N282  1  0.53517711  0.10161432  0.04197706  1
  H  H283  1  0.64511558  0.17381674  0.10446319  1
  H  H284  1  0.53190972  0.20252011  0.47965555  1
  C  C285  1  0.50196969  0.31416592  0.46926428  1
  C  C286  1  0.74425888  0.39656055  0.13364755  1
  C  C287  1  0.71816063  0.01813226  0.30340407  1
  C  C288  1  0.64333059  0.49614936  0.01184175  1
  N  N289  1  0.50558386  0.36054536  0.15374891  1
  C  C290  1  0.58524604  0.49694611  0.31341302  1
  H  H291  1  0.51963423  0.19308965  0.17988558  1
  C  C292  1  0.60320237  0.00100259  0.32543467  1
  H  H293  1  0.56276848  0.15077093  0.04199588  1
  C  C294  1  0.64149530  0.41774787  0.89238625  1
  C  C295  1  0.52134028  0.25138399  0.52498399  1
  N  N296  1  0.56848480  0.26802358  0.96062186  1
  C  C297  1  0.52593180  0.19142999  0.83879929  1
  C  C298  1  0.59172355  0.03214296  0.63485178  1
  H  H299  1  0.63245250  0.36444887  0.84884860  1
  H  H300  1  0.66026807  0.23129826  0.93933840  1
  C  C301  1  0.53509797  0.24798891  0.62315767  1
  H  H302  1  0.63185619  0.37900178  0.55022245  1
  N  N303  1  0.72123310  0.11609897  0.82185927  1
  N  N304  1  0.58978933  0.18216826  0.84333603  1
  N  N305  1  0.62474804  0.42815545  0.98407225  1
  Zn  Zn306  1  0.64760322  0.09376002  0.74205768  1
  C  C307  1  0.61068673  0.22660385  0.91713637  1
  C  C308  1  0.67793053  0.35532784  0.57009336  1
  N  N309  1  0.67219809  0.47580784  0.85339583  1
  C  C310  1  0.55578085  0.07811347  0.68983151  1
  Zn  Zn311  1  0.71693357  0.48042051  0.71257595  1
  Zn  Zn312  1  0.71283769  0.03654911  0.92999365  1
  H  H313  1  0.69033207  0.25762231  0.73330919  1
  N  N314  1  0.72059494  0.38117428  0.63150465  1
  C  C315  1  0.52502606  0.31223316  0.67625358  1
  N  N316  1  0.71918319  0.06931421  0.62019224  1
  C  C317  1  0.72374653  0.07463264  0.54127147  1
  H  H318  1  0.53390055  0.31601744  0.75313762  1
  H  H319  1  0.73529631  0.37879172  0.80635523  1
  N  N320  1  0.69655771  0.29064662  0.52058774  1
  H  H321  1  0.55527392  0.20067461  0.65727544  1
  C  C322  1  0.74758468  0.32260433  0.83867193  1
  C  C323  1  0.72093736  0.25625435  0.79862112  1
  C  C324  1  0.51362804  0.25346393  0.91495660  1
  C  C325  1  0.50294317  0.37746775  0.62560619  1
  C  C326  1  0.74195030  0.18681521  0.83793712  1
  C  C327  1  0.52212607  0.89973685  0.17414525  1
  N  N328  1  0.63431110  0.77384766  0.29831911  1
  H  H329  1  0.51729131  0.76753793  0.40634544  1
  N  N330  1  0.53406263  0.54005361  0.32887708  1
  C  C331  1  0.66674461  0.97751835  0.34896390  1
  C  C332  1  0.66680168  0.80673848  0.23056678  1
  Zn  Zn333  1  0.69213644  0.95278254  0.11234675  1
  C  C334  1  0.74121914  0.91048086  0.45798521  1
  Zn  Zn335  1  0.67354371  0.69873134  0.39831505  1
  C  C336  1  0.55639032  0.61151058  0.33882423  1
  H  H337  1  0.71903249  0.79191417  0.22388130  1
  C  C338  1  0.57505201  0.81176448  0.29029399  1
  C  C339  1  0.64255018  0.53764327  0.09993240  1
  H  H340  1  0.54007899  0.93227163  0.44111492  1
  C  C341  1  0.57411827  0.85763718  0.20227121  1
  H  H342  1  0.64408051  0.89804000  0.45783458  1
  C  C343  1  0.64177356  0.54716074  0.31866402  1
  H  H344  1  0.52168916  0.65315434  0.36815651  1
  N  N345  1  0.63856167  0.86350128  0.17948240  1
  H  H346  1  0.69035134  0.62731291  0.16939591  1
  C  C347  1  0.68290157  0.92299174  0.42127429  1
  C  C348  1  0.68710542  0.59540971  0.10581728  1
  N  N349  1  0.62011423  0.61861959  0.33202908  1
  C  C350  1  0.52091589  0.80480099  0.34890747  1
  C  C351  1  0.55042752  0.68034778  0.13462493  1
  H  H352  1  0.56891664  0.95816792  0.30355857  1
  H  H353  1  0.58746347  0.75664231  0.49346555  1
  H  H354  1  0.58794333  0.68313090  0.18635575  1
  H  H355  1  0.51964798  0.92811636  0.10665701  1
  H  H356  1  0.61286831  0.80331504  0.02209118  1
  C  C357  1  0.72022488  0.62464924  0.02432566  1
  C  C358  1  0.70469933  0.51534992  0.32512320  1
  C  C359  1  0.56290527  0.65363317  0.04293842  1
  H  H360  1  0.61304355  0.52240252  0.16102323  1
  H  H361  1  0.74423953  0.54661678  0.35352060  1
  H  H362  1  0.61113853  0.64355257  0.01554008  1
  C  C363  1  0.57728622  0.72472443  0.55942247  1
  C  C364  1  0.51832744  0.61942344  0.74585453  1
  H  H365  1  0.54268767  0.84534352  0.81058981  1
  C  C366  1  0.56020522  0.98850427  0.56856489  1
  C  C367  1  0.61516071  0.59638182  0.66102271  1
  C  C368  1  0.61005967  0.65674508  0.58292431  1
  H  H369  1  0.58274287  0.52984197  0.78217585  1
  N  N370  1  0.65822540  0.64575024  0.52045240  1
  C  C371  1  0.57290445  0.57856247  0.73747664  1
  N  N372  1  0.69100266  0.97475077  0.81523662  1
  C  C373  1  0.64146134  0.89165618  0.92305180  1
  C  C374  1  0.62189675  0.81816497  0.94646954  1
  C  C375  1  0.65414469  0.85257753  0.75435413  1
  C  C376  1  0.66240353  0.90669531  0.82328567  1
  C  C377  1  0.62654154  0.76102837  0.87840157  1
  N  N378  1  0.66773738  0.55801076  0.63798935  1
  C  C379  1  0.69117319  0.58668907  0.55682869  1
  H  H380  1  0.63790581  0.73595190  0.72624931  1
  C  C381  1  0.71188665  0.59526084  0.93352075  1
  H  H382  1  0.67025755  0.86345480  0.68242495  1
  H  H383  1  0.61391545  0.70517427  0.89783070  1
  C  C384  1  0.64051158  0.77935868  0.78384414  1
  C  C385  1  0.67714545  0.52642840  0.92551384  1
  H  H386  1  0.73389616  0.61973617  0.87244191  1
  N  N387  1  0.65060566  0.95045866  0.98152847  1
  H  H388  1  0.51873455  0.63339678  0.90122853  1
  C  C389  1  0.52276899  0.73683858  0.61198807  1
  C  C390  1  0.51155245  0.64652053  0.97921030  1
  H  H391  1  0.50191373  0.94580995  0.72994292  1
  N  N392  1  0.53008605  0.93324533  0.51052825  1
  H  H393  1  0.74484798  0.85511785  0.93064915  1
  H  H394  1  0.74815715  0.87101737  0.51534545  1
  C  C395  1  0.50994302  0.68670941  0.68920809  1
  H  H396  1  0.73343452  0.56440308  0.51943129  1
  C  C397  1  0.89112602  0.03444594  0.14971297  1
  C  C398  1  0.93801596  0.06045500  0.38790996  1
  H  H399  1  0.90140438  0.37288566  0.19123117  1
  C  C400  1  0.76510507  0.04186815  0.37975546  1
  C  C401  1  0.96993193  0.01771588  0.45240157  1
  C  C402  1  0.97445556  0.23970633  0.11472010  1
  C  C403  1  0.85094541  0.35603954  0.18074307  1
  C  C404  1  0.80912173  0.41097985  0.14313418  1
  H  H405  1  0.86311285  0.23640504  0.22156431  1
  H  H406  1  0.92695241  0.11971498  0.40394205  1
  H  H407  1  0.93110806  0.20835362  0.09415825  1
  N  N408  1  0.88240479  0.05623903  0.23607442  1
  N  N409  1  0.85068749  0.05828295  0.08592338  1
  Zn  Zn410  1  0.76612827  0.09793977  0.12244485  1
  C  C411  1  0.83052232  0.28093555  0.19771860  1
  H  H412  1  0.82690455  0.46396376  0.11555584  1
  C  C413  1  0.98791503  0.45825065  0.49741521  1
  N  N414  1  0.96644235  0.23862604  0.29714921  1
  C  C415  1  0.76520965  0.26457861  0.17787433  1
  H  H416  1  0.80394731  0.07388682  0.35023522  1
  H  H417  1  0.82076976  0.25124404  0.03823178  1
  N  N418  1  0.82682736  0.43244501  0.45151890  1
  H  H419  1  0.97208928  0.46049779  0.42159583  1
  C  C420  1  0.99342202  0.25696689  0.21032637  1
  H  H421  1  0.91530818  0.49797266  0.34906072  1
  H  H422  1  0.87001811  0.32670511  0.39816578  1
  C  C423  1  0.84982788  0.37757747  0.42751673  1
  C  C424  1  0.91644405  0.02018289  0.30559337  1
  H  H425  1  0.75282716  0.41220668  0.33577124  1
  H  H426  1  0.98389162  0.27550778  0.43418046  1
  C  C427  1  0.99920747  0.27561545  0.36166753  1
  H  H428  1  0.78334493  0.16964472  0.48051388  1
  C  C429  1  0.79740215  0.25325793  0.97087492  1
  H  H430  1  0.83012714  0.08421362  0.79774483  1
  Zn  Zn431  1  0.75673226  0.00205604  0.72066147  1
  N  N432  1  0.78417150  0.11453589  0.96451554  1
  C  C433  1  0.87330809  0.27164881  0.65045783  1
  H  H434  1  0.92120562  0.35369173  0.82715122  1
  H  H435  1  0.84833436  0.37840956  0.71348912  1
  N  N436  1  0.83187501  0.02837697  0.80620995  1
  C  C437  1  0.77921121  0.18546771  0.92666043  1
  C  C438  1  0.83094161  0.33023410  0.67385488  1
  C  C439  1  0.96740420  0.17212854  0.87932742  1
  H  H440  1  0.92070220  0.26617483  0.68293328  1
  C  C441  1  0.85692370  0.21755185  0.57917977  1
  C  C442  1  0.92917885  0.23860347  0.86992656  1
  C  C443  1  0.77102694  0.33458619  0.62636004  1
  C  C444  1  0.95462221  0.30809354  0.84203205  1
  N  N445  1  0.95932517  0.09952243  0.90944629  1
  Zn  Zn446  1  0.86182412  0.03999101  0.94807290  1
  H  H447  1  0.89622573  0.17955389  0.55963677  1
  H  H448  1  0.87842709  0.23472393  0.87968375  1
  H  H449  1  0.79277815  0.37372195  0.96627517  1
  C  C450  1  0.77725064  0.31972289  0.92987972  1
  C  C451  1  0.75527546  0.27546526  0.55368324  1
  C  C452  1  0.79902158  0.21689536  0.52908548  1
  H  H453  1  0.98503656  0.00282378  0.77182736  1
  H  H454  1  0.87015660  0.01481792  0.76687553  1
  C  C455  1  0.98982041  0.47394235  0.65056429  1
  N  N456  1  0.95105822  0.47571993  0.57475797  1
  H  H457  1  0.98902296  0.04430952  0.51859934  1
  C  C458  1  0.98678021  0.49325283  0.74658623  1
  H  H459  1  0.99742413  0.26465654  0.97296016  1
  C  C460  1  0.80578213  0.83993809  0.13412674  1
  C  C461  1  0.87404828  0.54701395  0.22426867  1
  H  H462  1  0.75344502  0.67468458  0.02691628  1
  C  C463  1  0.85449529  0.79219002  0.27648245  1
  H  H464  1  0.82508412  0.60413723  0.10530936  1
  C  C465  1  0.98513757  0.94105793  0.43655960  1
  N  N466  1  0.75911540  0.87125540  0.07391357  1
  C  C467  1  0.81093874  0.84260269  0.23713337  1
  C  C468  1  0.80326397  0.64485610  0.33464474  1
  C  C469  1  0.79498527  0.64995172  0.23607418  1
  H  H470  1  0.77204069  0.70027165  0.20229088  1
  C  C471  1  0.79238483  0.96323385  0.42879025  1
  H  H472  1  0.93321821  0.72211016  0.08103603  1
  H  H473  1  0.93271837  0.71524087  0.25571676  1
  N  N474  1  0.77335512  0.68212346  0.40844918  1
  C  C475  1  0.89879916  0.74986041  0.21836871  1
  H  H476  1  0.90272976  0.50978976  0.18476491  1
  C  C477  1  0.82992814  0.59899330  0.18114693  1
  C  C478  1  0.96834512  0.53812531  0.06099288  1
  C  C479  1  0.85010703  0.59052316  0.37736448  1
  C  C480  1  0.95966906  0.90001353  0.36225043  1
  C  C481  1  0.90011453  0.75596868  0.12154532  1
  H  H482  1  0.85465995  0.78028617  0.35188506  1
  N  N483  1  0.84370497  0.59689574  0.47685011  1
  C  C484  1  0.88474496  0.53942462  0.32255580  1
  C  C485  1  0.84855526  0.79615438  0.07826903  1
  C  C486  1  0.94040847  0.98038968  0.10572155  1
  H  H487  1  0.77829789  0.87967900  0.28090344  1
  H  H488  1  0.90776973  0.91172355  0.23548901  1
  C  C489  1  0.99354803  0.93961213  0.13929887  1
  C  C490  1  0.92646862  0.94273450  0.29550758  1
  H  H491  1  0.82194932  0.93573505  0.37497639  1
  H  H492  1  0.96156446  0.83674839  0.35248818  1
  H  H493  1  0.88579083  0.89790172  0.46222105  1
  C  C494  1  0.80427624  0.65460610  0.48633279  1
  C  C495  1  0.92795167  0.96600713  0.01028913  1
  H  H496  1  0.82092474  0.98002605  0.49292601  1
  C  C497  1  0.86084187  0.79033765  0.75314677  1
  C  C498  1  0.83065761  0.84301276  0.69519131  1
  H  H499  1  0.90418875  0.59922503  0.70185036  1
  Zn  Zn500  1  0.85480047  0.50158226  0.56811513  1
  N  N501  1  0.80383946  0.52058066  0.68964731  1
  H  H502  1  0.89577063  0.93230506  0.81787466  1
  Zn  Zn503  1  0.89323378  0.71723097  0.85373167  1
  C  C504  1  0.95579467  0.91552583  0.94187552  1
  C  C505  1  0.82801239  0.56157505  0.74404008  1
  H  H506  1  0.77909523  0.66199010  0.55677952  1
  C  C507  1  0.88249957  0.86296365  0.53082731  1
  H  H508  1  0.96266987  0.86769530  0.79971827  1
  C  C509  1  0.93890750  0.90864732  0.84763752  1
  C  C510  1  0.93332953  0.76017846  0.62230339  1
  C  C511  1  0.96396714  0.64303797  0.94866375  1
  N  N512  1  0.79479121  0.89687903  0.66458680  1
  N  N513  1  0.87329130  0.60214175  0.76113937  1
  C  C514  1  0.91009075  0.74978904  0.71606805  1
  C  C515  1  0.92134270  0.80094165  0.55497517  1
  C  C516  1  0.83900252  0.88219716  0.60155305  1
  H  H517  1  0.94083879  0.50786342  0.77474581  1
  H  H518  1  0.88119086  0.58544879  0.99243100  1
  N  N519  1  0.82772062  0.79755452  0.98632403  1
  C  C520  1  0.93399792  0.58405062  0.99820691  1
  C  C521  1  0.77552757  0.84141562  0.99046270  1
