# generated using pymatgen
data_ZnH10(C7N2)2
_symmetry_space_group_name_H-M   'P 1'
_cell_length_a   18.21221219
_cell_length_b   22.03884051
_cell_length_c   13.55534311
_cell_angle_alpha   90.00000000
_cell_angle_beta   90.00000000
_cell_angle_gamma   90.00000000
_symmetry_Int_Tables_number   1
_chemical_formula_structural   ZnH10(C7N2)2
_chemical_formula_sum   'Zn18 H180 C252 N72'
_cell_volume   5440.78993452
_cell_formula_units_Z   18
loop_
 _symmetry_equiv_pos_site_id
 _symmetry_equiv_pos_as_xyz
  1  'x, y, z'
loop_
 _atom_site_type_symbol
 _atom_site_label
 _atom_site_symmetry_multiplicity
 _atom_site_fract_x
 _atom_site_fract_y
 _atom_site_fract_z
 _atom_site_occupancy
  Zn  Zn0  1  0.20931861  0.46188271  0.14998604  1
  H  H1  1  0.19208942  0.19470175  0.12975855  1
  H  H2  1  0.19241088  0.41689448  0.38567660  1
  N  N3  1  0.22224563  0.35162269  0.19949885  1
  N  N4  1  0.12696913  0.48510261  0.45273096  1
  H  H5  1  0.24168927  0.07126877  0.09004178  1
  C  C6  1  0.02044580  0.15240583  0.46180066  1
  C  C7  1  0.23047782  0.05296453  0.01525656  1
  H  H8  1  0.00682948  0.24562358  0.41481487  1
  N  N9  1  0.18926659  0.26732317  0.28312866  1
  C  C10  1  0.16303949  0.19630656  0.05951542  1
  C  C11  1  0.05613973  0.23839791  0.11927132  1
  C  C12  1  0.15258410  0.45434296  0.37778376  1
  H  H13  1  0.09439546  0.26102610  0.17283843  1
  C  C14  1  0.08198180  0.19493592  0.05263905  1
  H  H15  1  0.12250161  0.34314477  0.29142252  1
  H  H16  1  0.18866308  0.05878574  0.40618489  1
  C  C17  1  0.17373995  0.32374678  0.25862709  1
  N  N18  1  0.14192551  0.47638941  0.28204996  1
  C  C19  1  0.02734385  0.01866483  0.41953454  1
  H  H20  1  0.00661970  0.15488320  0.20838404  1
  H  H21  1  0.23770088  0.32765563  0.01418736  1
  C  C22  1  0.24845871  0.06977532  0.41065285  1
  C  C23  1  0.00225486  0.12297098  0.36860402  1
  H  H24  1  0.00382941  0.41825099  0.33364026  1
  C  C25  1  0.00759928  0.06148283  0.34462541  1
  N  N26  1  0.24782937  0.42670280  0.00396186  1
  H  H27  1  0.17161279  0.21761555  0.47710738  1
  C  C28  1  0.21675106  0.24910297  0.49602691  1
  C  C29  1  0.17953949  0.21452200  0.71575410  1
  H  H30  1  0.08757298  0.09292694  0.90820112  1
  C  C31  1  0.21230893  0.01248384  0.81916878  1
  N  N32  1  0.08199700  0.39743826  0.64491308  1
  H  H33  1  0.01363585  0.12084424  0.83869137  1
  C  C34  1  0.05944409  0.13446525  0.88919514  1
  H  H35  1  0.13477725  0.07057987  0.63115419  1
  C  C36  1  0.02602497  0.37391271  0.59659746  1
  C  C37  1  0.18082061  0.20202618  0.87687908  1
  C  C38  1  0.11805016  0.17057908  0.83166354  1
  C  C39  1  0.12188751  0.37887203  0.82625928  1
  C  C40  1  0.19632711  0.30745865  0.53062228  1
  H  H41  1  0.17508841  0.40903938  0.81977290  1
  C  C42  1  0.06728667  0.13330745  0.53943526  1
  H  H43  1  0.13851435  0.31424954  0.54683738  1
  C  C44  1  0.10449116  0.34780283  0.91155780  1
  C  C45  1  0.07623355  0.37087360  0.73840385  1
  H  H46  1  0.06603107  0.42903433  0.99362621  1
  H  H47  1  0.08514652  0.16377841  0.60000765  1
  C  C48  1  0.01669793  0.32478554  0.74012348  1
  C  C49  1  0.04383337  0.30581523  0.90989444  1
  C  C50  1  0.07243590  0.02579683  0.51211046  1
  H  H51  1  0.19577983  0.23426167  0.64435858  1
  N  N52  1  0.11999625  0.17815253  0.73285675  1
  H  H53  1  0.24325841  0.10706346  0.56208271  1
  C  C54  1  0.09681857  0.07606492  0.56570803  1
  C  C55  1  0.06024826  0.47338257  0.96047774  1
  C  C56  1  0.01929127  0.47604499  0.87177145  1
  Zn  Zn57  1  0.15342856  0.46568351  0.60467676  1
  N  N58  1  0.21680675  0.22838858  0.79737099  1
  H  H59  1  0.01673023  0.39542809  0.52583106  1
  C  C60  1  0.18132014  0.00481983  0.99638196  1
  H  H61  1  0.02797780  0.27172131  0.96816467  1
  C  C62  1  0.02737336  0.16462556  0.98403743  1
  H  H63  1  0.13981223  0.34919628  0.97960962  1
  C  C64  1  0.20923681  0.20138002  0.97804877  1
  C  C65  1  0.09438314  0.53694662  0.40886806  1
  H  H66  1  0.21081657  0.74171980  0.14380556  1
  C  C67  1  0.05502671  0.92965355  0.46910136  1
  H  H68  1  0.21687413  0.60861676  0.08417133  1
  C  C69  1  0.04932081  0.58458342  0.45340163  1
  H  H70  1  0.14992587  0.98164752  0.05423401  1
  C  C71  1  0.14026211  0.69509391  0.43801534  1
  N  N72  1  0.14723651  0.53371811  0.07172694  1
  C  C73  1  0.18265754  0.73278190  0.37145397  1
  C  C74  1  0.09826621  0.52822019  0.30055840  1
  C  C75  1  0.19962542  0.79131160  0.40844450  1
  H  H76  1  0.02357318  0.83823788  0.26078773  1
  C  C77  1  0.06833402  0.57259958  0.23646300  1
  H  H78  1  0.20297205  0.71562153  0.29690594  1
  C  C79  1  0.16366001  0.59315012  0.05897018  1
  H  H80  1  0.06694947  0.57040657  0.15141345  1
  H  H81  1  0.13283290  0.64715105  0.41743503  1
  N  N82  1  0.00868988  0.95752440  0.40578140  1
  C  C83  1  0.03036636  0.62117666  0.28226860  1
  C  C84  1  0.01875770  0.62534851  0.38603736  1
  H  H85  1  0.05331613  0.88086890  0.48297007  1
  H  H86  1  0.24761709  0.55785596  0.46131598  1
  C  C87  1  0.09180606  0.52607231  0.00133544  1
  N  N88  1  0.23432881  0.84140524  0.36787654  1
  C  C89  1  0.23158003  0.88376665  0.44457615  1
  H  H90  1  0.00609950  0.65631369  0.23747276  1
  H  H91  1  0.13638966  0.94395737  0.88608543  1
  Zn  Zn92  1  0.16406568  0.93121194  0.64179122  1
  C  C93  1  0.03378003  0.58762430  0.86136000  1
  H  H94  1  0.14423077  0.55464115  0.81275437  1
  C  C95  1  0.12133115  0.77449059  0.56146100  1
  N  N96  1  0.09340874  0.96628304  0.53150495  1
  C  C97  1  0.22692863  0.65356514  0.67769717  1
  H  H98  1  0.02619140  0.61962467  0.67660756  1
  C  C99  1  0.07976962  0.80711291  0.88295773  1
  Zn  Zn100  1  0.18675661  0.69320982  0.91440185  1
  N  N101  1  0.12827880  0.62504530  0.98613780  1
  N  N102  1  0.13696200  0.86445495  0.75638902  1
  H  H103  1  0.03000919  0.72980709  0.67863833  1
  H  H104  1  0.01707572  0.74854516  0.99188335  1
  C  C105  1  0.17169000  0.81320172  0.78007762  1
  C  C106  1  0.07581146  0.86201899  0.82084372  1
  H  H107  1  0.03652090  0.57954387  0.53071202  1
  N  N108  1  0.14175399  0.77471426  0.84959950  1
  H  H109  1  0.01169671  0.62904798  0.82743523  1
  N  N110  1  0.19543437  0.63887844  0.76958382  1
  H  H111  1  0.08764760  0.68140660  0.57712083  1
  H  H112  1  0.09970593  0.78939572  0.63398594  1
  N  N113  1  0.17944519  0.55631990  0.66269533  1
  C  C114  1  0.02029041  0.79035844  0.94520116  1
  C  C115  1  0.07613696  0.58525435  0.94806649  1
  C  C116  1  0.17095041  0.57995515  0.75226321  1
  C  C117  1  0.21897761  0.60051923  0.61065044  1
  H  H118  1  0.22104652  0.80599993  0.73361062  1
  C  C119  1  0.17084751  0.98478795  0.89910191  1
  N  N120  1  0.21663710  0.99541753  0.71861902  1
  C  C121  1  0.01369774  0.90307863  0.82417946  1
  N  N122  1  0.19467469  0.87233580  0.52777245  1
  C  C123  1  0.11109290  0.71513070  0.52955802  1
  H  H124  1  0.01142280  0.94809715  0.78335786  1
  C  C125  1  0.00589399  0.53216124  0.82417103  1
  C  C126  1  0.17175689  0.81206778  0.50628402  1
  C  C127  1  0.39617151  0.26769670  0.14607685  1
  C  C128  1  0.36828287  0.06900782  0.32140261  1
  H  H129  1  0.41077863  0.17369963  0.19908680  1
  H  H130  1  0.39029245  0.49691876  0.13078351  1
  H  H131  1  0.44945112  0.26735654  0.10602643  1
  H  H132  1  0.30000625  0.18777252  0.45113867  1
  C  C133  1  0.29436173  0.05532949  0.33072259  1
  C  C134  1  0.30652877  0.20719387  0.25029962  1
  H  H135  1  0.33368456  0.38272667  0.27719350  1
  H  H136  1  0.40202368  0.06033158  0.25592394  1
  N  N137  1  0.40442999  0.45554571  0.32805936  1
  C  C138  1  0.40149974  0.09457477  0.40819471  1
  H  H139  1  0.29512056  0.16896593  0.30013503  1
  C  C140  1  0.34545833  0.31460998  0.13108893  1
  H  H141  1  0.35790538  0.35526813  0.08884894  1
  N  N142  1  0.30740093  0.47675691  0.23022323  1
  C  C143  1  0.34783042  0.43439771  0.27472309  1
  Zn  Zn144  1  0.47509739  0.40717532  0.43137620  1
  Zn  Zn145  1  0.48729828  0.04826921  0.12573832  1
  C  C146  1  0.37218418  0.21253160  0.19487467  1
  H  H147  1  0.40008692  0.26743204  0.44206618  1
  N  N148  1  0.47111673  0.11712643  0.42567943  1
  C  C149  1  0.27898447  0.30898288  0.18351215  1
  H  H150  1  0.49100729  0.29596581  0.31129613  1
  C  C151  1  0.29118181  0.23376634  0.48117491  1
  C  C152  1  0.25704694  0.25421165  0.24237843  1
  H  H153  1  0.27668556  0.03258505  0.26269653  1
  C  C154  1  0.27934367  0.09392963  0.49830778  1
  C  C155  1  0.34899498  0.27788896  0.47630452  1
  C  C156  1  0.35409664  0.10694505  0.49864551  1
  N  N157  1  0.36665572  0.39390814  0.49961012  1
  C  C158  1  0.25519911  0.36711164  0.96961313  1
  C  C159  1  0.34281134  0.43986096  0.76229799  1
  H  H160  1  0.30876093  0.11909955  0.96186472  1
  H  H161  1  0.32928375  0.48310964  0.54127345  1
  H  H162  1  0.40652574  0.01328077  0.91604413  1
  N  N163  1  0.29819233  0.07540833  0.75177111  1
  C  C164  1  0.27648898  0.45951836  0.92499945  1
  N  N165  1  0.45388286  0.10537173  0.82517075  1
  N  N166  1  0.28666061  0.35977416  0.88112778  1
  N  N167  1  0.38882985  0.22983082  0.78383794  1
  C  C168  1  0.45053681  0.10632751  0.92563244  1
  H  H169  1  0.29504560  0.03191402  0.61362080  1
  Zn  Zn170  1  0.38867112  0.14731797  0.72180292  1
  C  C171  1  0.44807346  0.25182615  0.82340323  1
  N  N172  1  0.39800795  0.13953149  0.56524382  1
  N  N173  1  0.44558536  0.29661990  0.88975042  1
  Zn  Zn174  1  0.30180872  0.28225580  0.80547194  1
  C  C175  1  0.26846349  0.03299810  0.68674038  1
  C  C176  1  0.31750360  0.43543403  0.53473538  1
  C  C177  1  0.46784852  0.14152118  0.51522619  1
  H  H178  1  0.36555503  0.40661188  0.70751668  1
  C  C179  1  0.30080048  0.41841954  0.84387922  1
  H  H180  1  0.40330674  0.41851230  0.99770541  1
  H  H181  1  0.41882535  0.13935175  0.96881770  1
  C  C182  1  0.43942099  0.45759721  0.99972545  1
  C  C183  1  0.48714582  0.47061937  0.91705048  1
  C  C184  1  0.27330011  0.08166069  0.94304736  1
  C  C185  1  0.25289489  0.35087202  0.53946030  1
  C  C186  1  0.26724365  0.05920145  0.84121983  1
  H  H187  1  0.49118347  0.43731058  0.85496211  1
  C  C188  1  0.33040739  0.33856121  0.50682932  1
  H  H189  1  0.39822711  0.01091688  0.54599213  1
  N  N190  1  0.49294365  0.06484437  0.97350167  1
  N  N191  1  0.25128817  0.41275856  0.55451034  1
  H  H192  1  0.26865419  0.20323940  0.99179195  1
  C  C193  1  0.36511506  0.63891573  0.26071861  1
  H  H194  1  0.37330294  0.95645244  0.40081762  1
  N  N195  1  0.34697868  0.89704181  0.17631234  1
  C  C196  1  0.42777293  0.77125762  0.43608960  1
  N  N197  1  0.32835728  0.76092422  0.15430680  1
  H  H198  1  0.25903886  0.82896916  0.03290728  1
  H  H199  1  0.35316025  0.69012495  0.25630934  1
  C  C200  1  0.31407183  0.59486378  0.22583352  1
  C  C201  1  0.39704274  0.51900119  0.31864494  1
  H  H202  1  0.26518827  0.60563163  0.18511984  1
  C  C203  1  0.26791151  0.73517297  0.10903261  1
  C  C204  1  0.44637300  0.56527142  0.34926633  1
  C  C205  1  0.39911334  0.93212378  0.46262768  1
  H  H206  1  0.26214494  0.92644366  0.44014293  1
  C  C207  1  0.43308594  0.62396829  0.30830397  1
  C  C208  1  0.37947440  0.94820860  0.19889738  1
  Zn  Zn209  1  0.33359381  0.82405356  0.26575078  1
  C  C210  1  0.33176721  0.53476554  0.25277434  1
  N  N211  1  0.39524793  0.82182127  0.39374097  1
  C  C212  1  0.33205511  0.90282875  0.07320168  1
  C  C213  1  0.36796650  0.95764144  0.03689853  1
  H  H214  1  0.43423206  0.72688882  0.39898908  1
  H  H215  1  0.39993001  0.95875494  0.26628955  1
  C  C216  1  0.46100434  0.75885961  0.08221006  1
  H  H217  1  0.47132308  0.66396525  0.32606048  1
  C  C218  1  0.38453700  0.74937081  0.08696060  1
  N  N219  1  0.39244630  0.98877939  0.12140523  1
  H  H220  1  0.32697085  0.64469562  0.41680377  1
  H  H221  1  0.44751751  0.60135962  0.10934880  1
  C  C222  1  0.28975640  0.65003911  0.48590731  1
  C  C223  1  0.45392400  0.56518903  0.05384957  1
  C  C224  1  0.40532180  0.86668486  0.46840288  1
  C  C225  1  0.42280015  0.50589289  0.06537814  1
  H  H226  1  0.38119995  0.53449325  0.49593100  1
  H  H227  1  0.49041742  0.78166625  0.14407869  1
  H  H228  1  0.49580318  0.55614621  0.39568852  1
  N  N229  1  0.27578199  0.71356929  0.01827536  1
  C  C230  1  0.46221398  0.72656222  0.90138530  1
  N  N231  1  0.45499805  0.77903617  0.52551642  1
  C  C232  1  0.42600747  0.54672642  0.54892074  1
  H  H233  1  0.32246747  0.74327656  0.52827327  1
  C  C234  1  0.26569192  0.70660092  0.64528441  1
  C  C235  1  0.25454313  0.59641743  0.51626519  1
  H  H236  1  0.36966713  0.62821967  0.59482311  1
  C  C237  1  0.37934668  0.97215496  0.93465178  1
  C  C238  1  0.34340087  0.93270999  0.86981906  1
  C  C239  1  0.41517075  0.96346865  0.55016138  1
  C  C240  1  0.28444300  0.52507206  0.91292859  1
  H  H241  1  0.26078169  0.55542203  0.96637360  1
  C  C242  1  0.32849303  0.54352385  0.83452814  1
  H  H243  1  0.34659477  0.59070548  0.81708032  1
  C  C244  1  0.35379621  0.50332824  0.75932316  1
  C  C245  1  0.42020527  0.60187816  0.60151002  1
  C  C246  1  0.45680018  0.87305783  0.64219900  1
  H  H247  1  0.36001869  0.69145625  0.83985582  1
  C  C248  1  0.35009492  0.71839463  0.99717634  1
  C  C249  1  0.38809656  0.70997741  0.90605747  1
  C  C250  1  0.44675617  0.83894461  0.55091914  1
  H  H251  1  0.44936234  0.95934694  0.71050002  1
  C  C252  1  0.44486168  0.93529431  0.63875756  1
  C  C253  1  0.49683817  0.74990591  0.98761116  1
  H  H254  1  0.33966640  0.94851375  0.79379185  1
  C  C255  1  0.29328288  0.70167332  0.54918276  1
  C  C256  1  0.30170793  0.88089618  0.89807248  1
  H  H257  1  0.38439947  0.52308259  0.69927353  1
  H  H258  1  0.27827680  0.74498623  0.69662099  1
  H  H259  1  0.46975081  0.66732745  0.71014385  1
  C  C260  1  0.47633831  0.62798147  0.66237393  1
  H  H261  1  0.27194215  0.85525602  0.84244416  1
  C  C262  1  0.48747006  0.57983961  0.96331187  1
  H  H263  1  0.49203694  0.72478946  0.82863649  1
  C  C264  1  0.49479203  0.51506914  0.56137912  1
  H  H265  1  0.48189136  0.85053033  0.70802404  1
  C  C266  1  0.29709086  0.86497699  0.99797377  1
  C  C267  1  0.60762661  0.27372583  0.11970732  1
  N  N268  1  0.55705663  0.22568315  0.40533750  1
  H  H269  1  0.73823243  0.25775978  0.49669780  1
  N  N270  1  0.52848997  0.12723835  0.17842788  1
  C  C271  1  0.67846227  0.36958789  0.37905282  1
  C  C272  1  0.69179261  0.06789805  0.27942491  1
  C  C273  1  0.56207870  0.22512372  0.07812136  1
  C  C274  1  0.54083097  0.16643876  0.12499335  1
  H  H275  1  0.65345847  0.02978410  0.29877580  1
  Zn  Zn276  1  0.71279262  0.20371095  0.24205275  1
  N  N277  1  0.66290828  0.12108928  0.28835724  1
  C  C278  1  0.51834053  0.28057631  0.38156770  1
  C  C279  1  0.58820797  0.33179625  0.08221319  1
  N  N280  1  0.61209532  0.46795749  0.18506104  1
  N  N281  1  0.68050391  0.26102490  0.14222711  1
  C  C282  1  0.55035197  0.45483443  0.22761849  1
  Zn  Zn283  1  0.55097969  0.13854210  0.33215180  1
  C  C284  1  0.62962791  0.40276634  0.31926447  1
  N  N285  1  0.55473894  0.41337823  0.30494544  1
  C  C286  1  0.66665897  0.43704378  0.23766028  1
  H  H287  1  0.71613594  0.29536032  0.15840889  1
  H  H288  1  0.61426000  0.37561576  0.10808033  1
  H  H289  1  0.65188434  0.34153305  0.43627979  1
  H  H290  1  0.50001884  0.47864925  0.20402274  1
  H  H291  1  0.51617902  0.03359569  0.38592464  1
  N  N292  1  0.51575869  0.32209414  0.45020239  1
  C  C293  1  0.74551085  0.43981616  0.22628887  1
  C  C294  1  0.58592205  0.23961972  0.49755728  1
  C  C295  1  0.53869893  0.34153181  0.00618695  1
  N  N296  1  0.52566177  0.46178210  0.53042753  1
  H  H297  1  0.52790267  0.38633676  0.97438035  1
  C  C298  1  0.50824327  0.29235168  0.94923879  1
  C  C299  1  0.52998867  0.03090381  0.90518988  1
  H  H300  1  0.60525059  0.30497011  0.76811953  1
  C  C301  1  0.59783537  0.46193335  0.55967256  1
  H  H302  1  0.65720917  0.16340630  0.54328358  1
  C  C303  1  0.63377128  0.20844589  0.56580686  1
  C  C304  1  0.70134609  0.09554322  0.75798688  1
  H  H305  1  0.50024740  0.19325805  0.95640625  1
  C  C306  1  0.70620650  0.13080421  0.84437415  1
  H  H307  1  0.73558809  0.07283850  0.61050099  1
  C  C308  1  0.56428128  0.32464588  0.62835191  1
  C  C309  1  0.63902936  0.23299034  0.66198408  1
  H  H310  1  0.65989917  0.06103173  0.76414395  1
  H  H311  1  0.67641403  0.21448299  0.71880051  1
  H  H312  1  0.67296840  0.12012810  0.91186495  1
  C  C313  1  0.60721358  0.29047582  0.69085837  1
  C  C314  1  0.55274503  0.29842429  0.53089165  1
  C  C315  1  0.74392235  0.10390780  0.67280903  1
  H  H316  1  0.63760686  0.42985670  0.52849055  1
  H  H317  1  0.51333291  0.17101746  0.54416733  1
  H  H318  1  0.53552136  0.36571736  0.65308198  1
  N  N319  1  0.74690426  0.02942624  0.95811166  1
  C  C320  1  0.53004439  0.03396193  0.71614795  1
  C  C321  1  0.52516925  0.23326896  0.98616307  1
  H  H322  1  0.51005688  0.05011592  0.64491046  1
  C  C323  1  0.50626398  0.05837771  0.81057961  1
  H  H324  1  0.50515276  0.23197220  0.82349580  1
  Zn  Zn325  1  0.63510356  0.52961441  0.07649712  1
  H  H326  1  0.54534726  0.93092189  0.05648541  1
  Zn  Zn327  1  0.61321344  0.79852815  0.14105615  1
  C  C328  1  0.60315820  0.90417486  0.28817586  1
  C  C329  1  0.64039943  0.88430815  0.37598462  1
  N  N330  1  0.67506103  0.79761212  0.01338104  1
  C  C331  1  0.59181116  0.66140271  0.43073123  1
  N  N332  1  0.54278291  0.97863271  0.18849223  1
  C  C333  1  0.61017681  0.59836927  0.42003741  1
  N  N334  1  0.59820646  0.88380799  0.19126536  1
  H  H335  1  0.56478597  0.75224240  0.36160139  1
  C  C336  1  0.58332089  0.70493476  0.35509304  1
  N  N337  1  0.60279994  0.70821635  0.16620876  1
  H  H338  1  0.69344165  0.73881706  0.36426832  1
  C  C339  1  0.61948766  0.61450404  0.24448263  1
  C  C340  1  0.60047326  0.68135439  0.25631873  1
  C  C341  1  0.56195294  0.92853769  0.13796838  1
  C  C342  1  0.61915625  0.66492158  0.10086628  1
  N  N343  1  0.62603485  0.60824193  0.14401509  1
  C  C344  1  0.56276915  0.96247229  0.28548478  1
  H  H345  1  0.64413509  0.52556052  0.32645372  1
  C  C346  1  0.63828611  0.92140976  0.45989709  1
  C  C347  1  0.62864385  0.57423781  0.32811038  1
  C  C348  1  0.58853109  0.97357025  0.46076084  1
  H  H349  1  0.67117244  0.84120708  0.37264335  1
  H  H350  1  0.61505349  0.56966439  0.48560531  1
  H  H351  1  0.62519028  0.67390406  0.02138891  1
  C  C352  1  0.55144731  0.99478415  0.37767180  1
  H  H353  1  0.74332220  0.61288954  0.17776116  1
  C  C354  1  0.74390731  0.77383432  0.01675801  1
  H  H355  1  0.74997549  0.63971050  0.35052879  1
  N  N356  1  0.71400234  0.80650662  0.85846248  1
  N  N357  1  0.69121363  0.51193926  0.95184328  1
  H  H358  1  0.60978887  0.96924086  0.97431819  1
  H  H359  1  0.66931015  0.91142163  0.52492293  1
  H  H360  1  0.66856556  0.68971866  0.65348312  1
  H  H361  1  0.58954483  0.61622164  0.72429800  1
  C  C362  1  0.54412718  0.59987399  0.67814057  1
  C  C363  1  0.66099220  0.82104530  0.92342351  1
  C  C364  1  0.68137920  0.53704669  0.86434203  1
  C  C365  1  0.61088706  0.96136339  0.81606313  1
  C  C366  1  0.57850791  0.98278262  0.72400936  1
  N  N367  1  0.61815905  0.50950748  0.61527759  1
  H  H368  1  0.59045844  0.95056271  0.66465593  1
  H  H369  1  0.60752543  0.84176901  0.90645654  1
  C  C370  1  0.72829182  0.68414070  0.64510479  1
  H  H371  1  0.63383638  0.56619519  0.84800184  1
  H  H372  1  0.65284302  0.92395282  0.82032516  1
  C  C373  1  0.55493297  0.54346338  0.62450415  1
  N  N374  1  0.73306848  0.52235076  0.79175316  1
  H  H375  1  0.58253654  0.99814674  0.52974364  1
  Zn  Zn376  1  0.72719113  0.53906997  0.64544554  1
  H  H377  1  0.55615651  0.76030590  0.98419010  1
  C  C378  1  0.58198118  0.98115504  0.90527390  1
  Zn  Zn379  1  0.72998775  0.82109898  0.70596831  1
  H  H380  1  0.53705637  0.54327226  0.82866638  1
  H  H381  1  0.50818613  0.62817363  0.95808847  1
  C  C382  1  0.50756578  0.53148236  0.89878072  1
  H  H383  1  0.57469312  0.68073055  0.50596988  1
  C  C384  1  0.92591130  0.23958452  0.04613863  1
  C  C385  1  0.97032023  0.12718073  0.03169212  1
  C  C386  1  0.86732329  0.19430349  0.36300370  1
  C  C387  1  0.90108263  0.21071639  0.45431690  1
  H  H388  1  0.85033810  0.41174881  0.29081177  1
  N  N389  1  0.75998019  0.15535740  0.13438660  1
  H  H390  1  0.95184391  0.49749510  0.03297875  1
  N  N391  1  0.79343291  0.21135856  0.36611825  1
  C  C392  1  0.88139786  0.30378919  0.14969476  1
  H  H393  1  0.93783280  0.49584538  0.22026647  1
  Zn  Zn394  1  0.75239964  0.22756688  0.03943898  1
  N  N395  1  0.95220690  0.30423698  0.17346175  1
  C  C396  1  0.90871079  0.18211323  0.27251751  1
  C  C397  1  0.86446004  0.40493946  0.49287925  1
  C  C398  1  0.95414215  0.43133404  0.37633853  1
  C  C399  1  0.98378174  0.26214330  0.10931127  1
  C  C400  1  0.76716453  0.06359652  0.22679503  1
  H  H401  1  0.92981914  0.33452692  0.40735536  1
  N  N402  1  0.86057668  0.26430071  0.07534785  1
  H  H403  1  0.88673438  0.19019552  0.19649083  1
  C  C404  1  0.78849753  0.23524639  0.46339992  1
  H  H405  1  0.79330039  0.09092452  0.28339428  1
  C  C406  1  0.97266370  0.15229452  0.27653803  1
  H  H407  1  0.84028021  0.33307840  0.18761614  1
  C  C408  1  0.91489459  0.38368414  0.41943368  1
  H  H409  1  0.78671820  0.34865306  0.41857141  1
  H  H410  1  0.96336766  0.12951842  0.11413841  1
  H  H411  1  0.76707392  0.46941620  0.16895334  1
  C  C412  1  0.79139928  0.40691763  0.28897537  1
  H  H413  1  0.98568569  0.04669911  0.27562247  1
  H  H414  1  0.77830832  0.42303306  0.07328913  1
  C  C415  1  0.76374885  0.09527107  0.12364191  1
  H  H416  1  0.88143188  0.36311217  0.00251281  1
  C  C417  1  0.75711947  0.05728002  0.03749619  1
  C  C418  1  0.75460895  0.37166244  0.36236894  1
  C  C419  1  0.93541936  0.49345296  0.39083908  1
  C  C420  1  0.83214637  0.46708470  0.49103821  1
  C  C421  1  0.98521360  0.21567559  0.47504154  1
  N  N422  1  0.83462376  0.24944462  0.74952351  1
  C  C423  1  0.85136043  0.39856508  0.95701504  1
  H  H424  1  0.86668483  0.45831492  0.71975528  1
  Zn  Zn425  1  0.87548844  0.29249989  0.62989172  1
  H  H426  1  0.91423272  0.18424989  0.90978658  1
  H  H427  1  0.85411331  0.04931560  0.82579926  1
  C  C428  1  0.79849967  0.15022094  0.66352077  1
  H  H429  1  0.83163953  0.15733934  0.59547426  1
  H  H430  1  0.93428142  0.08058369  0.68038753  1
  C  C431  1  0.89495374  0.00912003  0.58219425  1
  N  N432  1  0.85145676  0.24076995  0.51245823  1
  C  C433  1  0.90337368  0.03939111  0.67214878  1
  H  H434  1  0.92707596  0.02335907  0.51896454  1
  H  H435  1  0.84139457  0.31262500  0.86500013  1
  C  C436  1  0.81993185  0.26810910  0.84136326  1
  H  H437  1  0.95981290  0.25453966  0.83209742  1
  C  C438  1  0.94630912  0.18828488  0.97690403  1
  N  N439  1  0.83096568  0.36729243  0.56715541  1
  C  C440  1  0.84427162  0.44988397  0.79752708  1
  C  C441  1  0.78052200  0.40700104  0.60225473  1
  N  N442  1  0.77644292  0.46345188  0.56227009  1
  C  C443  1  0.87414957  0.40412235  0.85581879  1
  C  C444  1  0.78131718  0.48263533  0.83523250  1
  H  H445  1  0.92042797  0.37680562  0.82192520  1
  N  N446  1  0.78013724  0.22739903  0.89436897  1
  C  C447  1  0.80347111  0.19261580  0.74239658  1
  C  C448  1  0.85712508  0.02312297  0.75291664  1
  N  N449  1  0.98215651  0.33068857  0.64919121  1
  H  H450  1  0.99666182  0.23920199  0.54846837  1
  C  C451  1  0.99990913  0.29230861  0.82886843  1
  H  H452  1  0.75134116  0.39492111  0.66914443  1
  C  C453  1  0.76111491  0.17804839  0.83892723  1
  C  C454  1  0.79411228  0.43309831  0.99932262  1
  H  H455  1  0.95329225  0.08476598  0.99808194  1
  H  H456  1  0.99646637  0.43437278  0.84382099  1
  C  C457  1  0.75497896  0.47520680  0.93760388  1
  C  C458  1  0.86034102  0.79078052  0.31692234  1
  C  C459  1  0.79393796  0.58751019  0.15094800  1
  C  C460  1  0.87160949  0.51289395  0.44232795  1
  H  H461  1  0.75275255  0.83577485  0.33378868  1
  Zn  Zn462  1  0.89802671  0.92645587  0.36001785  1
  H  H463  1  0.88631693  0.68444542  0.11372250  1
  H  H464  1  0.85185240  0.56034384  0.44504324  1
  H  H465  1  0.77884828  0.89098671  0.04797632  1
  C  C466  1  0.78631477  0.74227892  0.09237014  1
  C  C467  1  0.83441286  0.54725098  0.21130088  1
  C  C468  1  0.81294560  0.60125068  0.05176816  1
  C  C469  1  0.81578462  0.94260417  0.17129392  1
  C  C470  1  0.90072331  0.73325633  0.30810440  1
  H  H471  1  0.82308888  0.54159790  0.29024917  1
  C  C472  1  0.86270181  0.67678244  0.32626000  1
  N  N473  1  0.97141319  0.74800798  0.27095076  1
  N  N474  1  0.90999150  0.83956580  0.30185017  1
  C  C475  1  0.85047270  0.71272681  0.06216389  1
  C  C476  1  0.78554764  0.79367543  0.33301569  1
  C  C477  1  0.78505375  0.93684780  0.07868695  1
  H  H478  1  0.89099510  0.63531075  0.32187870  1
  H  H479  1  0.76507054  0.73723128  0.16503633  1
  H  H480  1  0.96998450  0.53016895  0.35888897  1
  C  C481  1  0.78585497  0.67996070  0.34135838  1
  C  C482  1  0.97341443  0.80801773  0.26739555  1
  H  H483  1  0.77960503  0.63465913  0.01407399  1
  H  H484  1  0.99388202  0.66955894  0.41064806  1
  C  C485  1  0.75048499  0.73636603  0.34441519  1
  C  C486  1  0.87484499  0.57075674  0.01027074  1
  C  C487  1  0.89959108  0.51923707  0.17042275  1
  C  C488  1  0.91052221  0.52609961  0.06689013  1
  H  H489  1  0.83614536  0.90195480  0.21227019  1
  C  C490  1  0.80880473  0.99999688  0.23090818  1
  C  C491  1  0.76237326  0.99043683  0.02464985  1
  N  N492  1  0.84512362  0.99793987  0.31324825  1
  N  N493  1  0.83852476  0.91837448  0.49757052  1
  H  H494  1  0.78134568  0.83462000  0.49134309  1
  H  H495  1  0.86214968  0.75085698  0.81051756  1
  H  H496  1  0.88470878  0.57610474  0.92933773  1
  C  C497  1  0.84825609  0.95657786  0.57848043  1
  C  C498  1  0.97273733  0.64342151  0.66051244  1
  C  C499  1  0.76806768  0.77885202  0.90919393  1
  C  C500  1  0.83954135  0.75050319  0.88787154  1
  N  N501  1  0.76566318  0.63006204  0.63624784  1
  C  C502  1  0.84016833  0.65028853  0.63783470  1
  C  C503  1  0.79102028  0.87466642  0.53564942  1
  C  C504  1  0.79767900  0.93975055  0.66168196  1
  C  C505  1  0.84338474  0.71699332  0.65741507  1
  H  H506  1  0.90761502  0.91332007  0.90833183  1
  H  H507  1  0.96992730  0.53592661  0.76309901  1
  C  C508  1  0.91189888  0.74554964  0.66341923  1
  C  C509  1  0.95943413  0.88394348  0.88922765  1
  H  H510  1  0.90873297  0.82000755  0.98962102  1
  N  N511  1  0.76877200  0.73270446  0.66015412  1
  C  C512  1  0.87588194  0.72056700  0.96316133  1
  C  C513  1  0.90486439  0.61463411  0.64374224  1
  H  H514  1  0.91354309  0.79522164  0.66648314  1
  H  H515  1  0.92916136  0.69799202  0.94514773  1
  N  N516  1  0.76997398  0.88489477  0.63006858  1
  C  C517  1  0.80597548  0.97436133  0.75228545  1
  H  H518  1  0.90457319  0.56552421  0.62722324  1
  H  H519  1  0.77087730  0.96757201  0.81896521  1
  C  C520  1  0.95834088  0.82947752  0.94572262  1
  C  C521  1  0.97516466  0.70778299  0.67006215  1
