# generated using pymatgen
data_ZnH10(C7N2)2
_symmetry_space_group_name_H-M   'P 1'
_cell_length_a   21.01102249
_cell_length_b   14.94249870
_cell_length_c   17.79575521
_cell_angle_alpha   90.00000000
_cell_angle_beta   90.00000000
_cell_angle_gamma   90.00000000
_symmetry_Int_Tables_number   1
_chemical_formula_structural   ZnH10(C7N2)2
_chemical_formula_sum   'Zn18 H180 C252 N72'
_cell_volume   5587.10505313
_cell_formula_units_Z   18
loop_
 _symmetry_equiv_pos_site_id
 _symmetry_equiv_pos_as_xyz
  1  'x, y, z'
loop_
 _atom_site_type_symbol
 _atom_site_label
 _atom_site_symmetry_multiplicity
 _atom_site_fract_x
 _atom_site_fract_y
 _atom_site_fract_z
 _atom_site_occupancy
  Zn  Zn0  1  0.23993338  0.07688493  0.17979912  1
  C  C1  1  0.07377374  0.23805468  0.44096787  1
  N  N2  1  0.08990415  0.01330587  0.02657824  1
  C  C3  1  0.14055414  0.04000311  0.49644396  1
  H  H4  1  0.07222079  0.23408307  0.37900195  1
  H  H5  1  0.19508124  0.27088210  0.01162089  1
  Zn  Zn6  1  0.10228231  0.14476040  0.04815579  1
  C  C7  1  0.12077544  0.30155177  0.46553799  1
  C  C8  1  0.08637781  0.41180185  0.30197514  1
  C  C9  1  0.17373738  0.10687994  0.45378822  1
  N  N10  1  0.19892115  0.17512577  0.08701910  1
  H  H11  1  0.18206803  0.17564662  0.47867807  1
  H  H12  1  0.11638043  0.35516788  0.31956665  1
  C  C13  1  0.05815212  0.38215375  0.04919620  1
  C  C14  1  0.02655437  0.10360895  0.23611703  1
  N  N15  1  0.02638468  0.20617859  0.12256883  1
  H  H16  1  0.02702932  0.32134984  0.24038864  1
  C  C17  1  0.22593590  0.23362264  0.05423096  1
  H  H18  1  0.21815960  0.14334125  0.34392156  1
  H  H19  1  0.06882190  0.35513678  0.10682654  1
  C  C20  1  0.17612746  0.00961570  0.34819603  1
  C  C21  1  0.04112719  0.17858867  0.49039278  1
  H  H22  1  0.06800848  0.06906156  0.21606675  1
  C  C23  1  0.04188168  0.47257108  0.03587994  1
  C  C24  1  0.18854903  0.09603839  0.37669445  1
  H  H25  1  0.14015371  0.35034260  0.42461403  1
  H  H26  1  0.23966231  0.43280527  0.24310530  1
  H  H27  1  0.00897128  0.02021366  0.32786185  1
  H  H28  1  0.00862314  0.12973811  0.46925543  1
  C  C29  1  0.03154467  0.39493304  0.25384021  1
  C  C30  1  0.10002284  0.49533628  0.33154409  1
  C  C31  1  0.23388045  0.49113219  0.20648064  1
  C  C32  1  0.00367669  0.18150642  0.19334993  1
  H  H33  1  0.00457699  0.43180108  0.45308027  1
  H  H34  1  0.11867322  0.06074304  0.55074432  1
  C  C35  1  0.09413530  0.23359966  0.89453725  1
  N  N36  1  0.20793283  0.32280879  0.81908477  1
  N  N37  1  0.20546582  0.43930786  0.67126338  1
  C  C38  1  0.05511708  0.36820087  0.90694312  1
  N  N39  1  0.08454675  0.31189914  0.85452026  1
  C  C40  1  0.13640594  0.31191967  0.54214666  1
  C  C41  1  0.03734196  0.48688175  0.64286472  1
  H  H42  1  0.11461693  0.17278473  0.86841584  1
  N  N43  1  0.07302421  0.47723495  0.70938066  1
  N  N44  1  0.09840866  0.26015257  0.67297947  1
  C  C45  1  0.10368036  0.25496033  0.59342293  1
  H  H46  1  0.17264243  0.36048105  0.56199338  1
  Zn  Zn47  1  0.13285515  0.35858922  0.74118997  1
  C  C48  1  0.05351493  0.20316725  0.68998729  1
  N  N49  1  0.02613404  0.15135517  0.63105501  1
  H  H50  1  0.03291255  0.20652397  0.74782543  1
  H  H51  1  0.03624847  0.36132486  0.58801949  1
  C  C52  1  0.05338193  0.18959322  0.56849276  1
  C  C53  1  0.19564772  0.43695618  0.92710760  1
  C  C54  1  0.22857108  0.37145744  0.88039624  1
  N  N55  1  0.09047326  0.24182013  0.96831360  1
  H  H56  1  0.14691919  0.46213224  0.91372798  1
  C  C57  1  0.06944738  0.33027835  0.98119020  1
  C  C58  1  0.02108482  0.45004132  0.89978281  1
  C  C59  1  0.02826652  0.43572584  0.57546262  1
  C  C60  1  0.22963303  0.46632944  0.99071173  1
  C  C61  1  0.00928561  0.47144264  0.50575123  1
  H  H62  1  0.00082787  0.47154801  0.84445164  1
  N  N63  1  0.20223719  0.64639954  0.39603369  1
  H  H64  1  0.20492222  0.51536417  0.02636311  1
  C  C65  1  0.16584821  0.61758774  0.15047805  1
  N  N66  1  0.05513626  0.66125219  0.32386566  1
  H  H67  1  0.23002104  0.86342166  0.42872364  1
  C  C68  1  0.17549078  0.53666131  0.19160342  1
  C  C69  1  0.16811555  0.88807178  0.28342726  1
  C  C70  1  0.21683619  0.66931072  0.12330169  1
  N  N71  1  0.14603870  0.85584010  0.34765583  1
  C  C72  1  0.18533685  0.97401497  0.09636172  1
  H  H73  1  0.04187242  0.51221661  0.08911379  1
  H  H74  1  0.11709571  0.63543081  0.13913183  1
  Zn  Zn75  1  0.12241230  0.72817176  0.38508879  1
  N  N76  1  0.18465312  0.97750919  0.27802959  1
  H  H77  1  0.17389820  0.84275151  0.23305281  1
  C  C78  1  0.12920046  0.95232989  0.04744893  1
  H  H79  1  0.20720125  0.73290287  0.09316383  1
  C  C80  1  0.14628777  0.93575985  0.39285022  1
  C  C81  1  0.00306011  0.69557875  0.29001952  1
  C  C82  1  0.05855145  0.57026007  0.30948407  1
  C  C83  1  0.12715638  0.95390624  0.46751832  1
  N  N84  1  0.13357516  0.72510287  0.49582604  1
  H  H85  1  0.11715498  0.88379665  0.02553254  1
  H  H86  1  0.21418425  0.60706395  0.29100385  1
  C  C87  1  0.23429043  0.94205817  0.12593210  1
  C  C88  1  0.22950135  0.60099142  0.35189456  1
  C  C89  1  0.00495784  0.55380131  0.25843885  1
  H  H90  1  0.13226738  0.50983022  0.21863385  1
  H  H91  1  0.14093896  0.50785930  0.36892688  1
  N  N92  1  0.03958734  0.62340495  0.69920596  1
  H  H93  1  0.24773913  0.73074617  0.72742915  1
  H  H94  1  0.10846589  0.90009241  0.50164777  1
  H  H95  1  0.10533717  0.86285139  0.87802557  1
  H  H96  1  0.17490582  0.82285076  0.73708343  1
  H  H97  1  0.09652857  0.57768100  0.79238430  1
  C  C98  1  0.06946321  0.56193634  0.73934763  1
  C  C99  1  0.15454164  0.79840274  0.68332566  1
  N  N100  1  0.04839827  0.74656268  0.84396433  1
  C  C101  1  0.12993514  0.78025254  0.62468984  1
  C  C102  1  0.05933235  0.81830912  0.88271083  1
  C  C103  1  0.10061232  0.76423541  0.54901708  1
  N  N104  1  0.01242762  0.84898378  0.92942144  1
  C  C105  1  0.02071201  0.58249542  0.63405052  1
  H  H106  1  0.13429088  0.51986905  0.61502836  1
  C  C107  1  0.02277328  0.50539601  0.96443225  1
  N  N108  1  0.23052151  0.54705356  0.58207315  1
  Zn  Zn109  1  0.22013799  0.65073434  0.50494124  1
  H  H110  1  0.05781594  0.79872845  0.52585400  1
  H  H111  1  0.00581798  0.57604554  0.95994859  1
  C  C112  1  0.18570610  0.50430789  0.61952735  1
  Zn  Zn113  1  0.00723194  0.98443098  0.96599181  1
  H  H114  1  0.44165824  0.32263968  0.37739364  1
  H  H115  1  0.38543636  0.22510439  0.16120237  1
  H  H116  1  0.27566018  0.25509324  0.06295226  1
  H  H117  1  0.45726074  0.19604543  0.46200064  1
  C  C118  1  0.29451207  0.26116702  0.22746410  1
  H  H119  1  0.33379865  0.01423526  0.33662397  1
  C  C120  1  0.42549626  0.18543251  0.41218804  1
  C  C121  1  0.35378421  0.07834349  0.34385895  1
  C  C122  1  0.31091625  0.34003603  0.44349934  1
  N  N123  1  0.29451297  0.17573557  0.24208569  1
  Zn  Zn124  1  0.39441361  0.42740357  0.22090138  1
  C  C125  1  0.29353356  0.44440722  0.00658439  1
  C  C126  1  0.41552720  0.26149831  0.12209672  1
  N  N127  1  0.43253104  0.34582392  0.13447715  1
  H  H128  1  0.26368899  0.27795723  0.17946627  1
  C  C129  1  0.46559496  0.37583432  0.07489914  1
  C  C130  1  0.41998061  0.25790535  0.36289273  1
  C  C131  1  0.37203985  0.24397599  0.30631265  1
  H  H132  1  0.40232713  0.05220628  0.44896402  1
  N  N133  1  0.34157898  0.31125801  0.26504591  1
  C  C134  1  0.39622358  0.10082461  0.40195005  1
  C  C135  1  0.33595531  0.15692790  0.29946807  1
  N  N136  1  0.42916558  0.23261357  0.04824205  1
  H  H137  1  0.31457691  0.30242545  0.38980073  1
  N  N138  1  0.48110198  0.46766195  0.27575452  1
  C  C139  1  0.49349857  0.46382157  0.06064197  1
  H  H140  1  0.26123398  0.02618086  0.43412641  1
  H  H141  1  0.32313771  0.48011803  0.05161279  1
  H  H142  1  0.49445918  0.14075073  0.08389442  1
  C  C143  1  0.46069669  0.30162664  0.01631363  1
  H  H144  1  0.38677176  0.14669066  0.01003830  1
  N  N145  1  0.28646334  0.41216252  0.44635608  1
  H  H146  1  0.32894017  0.30438307  0.49688960  1
  C  C147  1  0.36888410  0.09649127  0.96691253  1
  C  C148  1  0.27055613  0.44699741  0.67428076  1
  N  N149  1  0.47681351  0.28347753  0.87119720  1
  H  H150  1  0.42348151  0.41497737  0.73734057  1
  C  C151  1  0.29211053  0.33579203  0.90027153  1
  N  N152  1  0.30703196  0.26322712  0.85241986  1
  C  C153  1  0.44543991  0.09441809  0.69906660  1
  C  C154  1  0.45969720  0.10407327  0.61605796  1
  Zn  Zn155  1  0.39656839  0.20542230  0.83608766  1
  N  N156  1  0.42099918  0.17459867  0.72330362  1
  H  H157  1  0.39433367  0.29317373  0.66739352  1
  N  N158  1  0.44554037  0.19069393  0.59915839  1
  C  C159  1  0.42087430  0.22838509  0.66242516  1
  C  C160  1  0.39837531  0.49987666  0.64297217  1
  N  N161  1  0.36435704  0.10625249  0.89167583  1
  C  C162  1  0.45316502  0.00595707  0.73049465  1
  C  C163  1  0.38443496  0.44054137  0.70392492  1
  H  H164  1  0.32867405  0.04357248  0.73897987  1
  C  C165  1  0.32472031  0.37572365  0.96510637  1
  C  C166  1  0.32003259  0.41679234  0.72105688  1
  C  C167  1  0.48638134  0.32169870  0.94256589  1
  H  H168  1  0.30702559  0.37119395  0.76810960  1
  H  H169  1  0.37510442  0.35708569  0.97391468  1
  C  C170  1  0.31725301  0.01745141  0.53772107  1
  H  H171  1  0.33069988  0.08858409  0.53756912  1
  C  C172  1  0.33529524  0.03090582  0.86192917  1
  C  C173  1  0.25691818  0.25646047  0.81112061  1
  C  C174  1  0.47877121  0.03424470  0.56578397  1
  C  C175  1  0.31508033  0.00306337  0.78714551  1
  H  H176  1  0.49040021  0.04580557  0.50625921  1
  H  H177  1  0.25642107  0.21503568  0.75756512  1
  N  N178  1  0.34778061  0.01473382  0.99273654  1
  H  H179  1  0.28845588  0.43802144  0.50222093  1
  C  C180  1  0.43022598  0.93614424  0.15882085  1
  N  N181  1  0.33837231  0.66624959  0.11442058  1
  H  H182  1  0.44593512  0.93453388  0.39230958  1
  H  H183  1  0.42843808  0.60644175  0.12248623  1
  H  H184  1  0.47045533  0.72484123  0.44858515  1
  H  H185  1  0.25918744  0.87261667  0.12646483  1
  N  N186  1  0.38770718  0.86560912  0.15463839  1
  C  C187  1  0.36874372  0.84931895  0.22861127  1
  C  C188  1  0.33186243  0.78042151  0.26148973  1
  C  C189  1  0.28520740  0.54486022  0.17718792  1
  H  H190  1  0.30358114  0.73239490  0.22744478  1
  C  C191  1  0.37075238  0.83464344  0.38383778  1
  Zn  Zn192  1  0.36403382  0.78723710  0.05724236  1
  C  C193  1  0.37785707  0.59997204  0.13899062  1
  C  C194  1  0.40811596  0.91332875  0.27504865  1
  N  N195  1  0.34976189  0.53229099  0.17730715  1
  C  C196  1  0.41365706  0.89821234  0.35508821  1
  N  N197  1  0.44505868  0.96502282  0.22724093  1
  H  H198  1  0.36848140  0.82706208  0.44786241  1
  H  H199  1  0.27218764  0.56032372  0.36842990  1
  H  H200  1  0.29759840  0.73324619  0.37329659  1
  C  C201  1  0.33158736  0.77772072  0.34087759  1
  H  H202  1  0.46340201  0.60993820  0.30262655  1
  C  C203  1  0.27747728  0.63240616  0.13419848  1
  H  H204  1  0.45604838  0.96747482  0.11135115  1
  C  C205  1  0.26052745  0.88993593  0.47625358  1
  N  N206  1  0.44686678  0.77231693  0.00312509  1
  C  C207  1  0.49668390  0.55413285  0.30086727  1
  C  C208  1  0.27745832  0.97877804  0.47686663  1
  C  C209  1  0.41405166  0.69900751  0.88098246  1
  C  C210  1  0.27606544  0.73860251  0.92080456  1
  H  H211  1  0.36609213  0.72012807  0.88446322  1
  C  C212  1  0.28225539  0.83345398  0.53781821  1
  C  C213  1  0.44221118  0.64821120  0.82207363  1
  C  C214  1  0.46169706  0.73870401  0.57158010  1
  N  N215  1  0.33605730  0.80671780  0.64730829  1
  N  N216  1  0.29792369  0.81047171  0.96689182  1
  C  C217  1  0.27789772  0.58706160  0.87325027  1
  C  C218  1  0.29863444  0.88267940  0.91813337  1
  H  H219  1  0.40811760  0.73578219  0.57131465  1
  C  C220  1  0.28292845  0.64697465  0.93617174  1
  C  C221  1  0.30345906  0.73382946  0.62303605  1
  H  H222  1  0.41639231  0.62984511  0.77039367  1
  C  C223  1  0.34001734  0.96721581  0.59684542  1
  H  H224  1  0.46329848  0.73599234  0.69503721  1
  H  H225  1  0.29856251  0.62555204  0.99395571  1
  H  H226  1  0.37010393  0.99770032  0.63928462  1
  C  C227  1  0.28177971  0.86080199  0.84172250  1
  N  N228  1  0.27566248  0.74386845  0.55466755  1
  C  C229  1  0.32653652  0.96995089  0.92851745  1
  C  C230  1  0.26327858  0.60987949  0.79905612  1
  C  C231  1  0.35172368  0.53905544  0.59831411  1
  C  C232  1  0.32326796  0.87407488  0.59893080  1
  C  C233  1  0.46035517  0.71923934  0.93958083  1
  H  H234  1  0.43879717  0.98873047  0.78787566  1
  H  H235  1  0.29807689  0.66922802  0.65526461  1
  H  H236  1  0.36696694  0.58462399  0.55122361  1
  H  H237  1  0.27483537  0.89531548  0.72031009  1
  C  C238  1  0.28973620  0.91752016  0.77752947  1
  C  C239  1  0.26426889  0.76257989  0.84237644  1
  C  C240  1  0.28698683  0.51238480  0.61116245  1
  C  C241  1  0.25437993  0.70281761  0.78292347  1
  H  H242  1  0.44819014  0.52081781  0.63024577  1
  H  H243  1  0.28703532  0.51787307  0.88875891  1
  C  C244  1  0.49623963  0.73041301  0.50430654  1
  C  C245  1  0.49138906  0.74147874  0.64378772  1
  H  H246  1  0.48135584  0.87466747  0.71004520  1
  C  C247  1  0.48986728  0.95362071  0.60425964  1
  C  C248  1  0.47516351  0.93871281  0.68212061  1
  H  H249  1  0.26275797  0.56341203  0.75295936  1
  H  H250  1  0.68365137  0.34010080  0.09445327  1
  C  C251  1  0.59615335  0.14160328  0.13379068  1
  N  N252  1  0.69758360  0.13401371  0.17538367  1
  C  C253  1  0.58039812  0.27178728  0.41197764  1
  C  C254  1  0.68657130  0.20887108  0.04556319  1
  H  H255  1  0.64282793  0.24912546  0.23451826  1
  C  C256  1  0.64208157  0.46380171  0.13395784  1
  C  C257  1  0.66948614  0.37749343  0.27992102  1
  C  C258  1  0.66501474  0.16873402  0.11711597  1
  H  H259  1  0.67478824  0.04861115  0.26806795  1
  C  C260  1  0.65320884  0.46623634  0.30240821  1
  H  H261  1  0.71230085  0.02822282  0.45538501  1
  N  N262  1  0.55875866  0.03846996  0.35432629  1
  C  C263  1  0.56551023  0.20034174  0.36395828  1
  C  C264  1  0.57047003  0.11421955  0.39618549  1
  C  C265  1  0.56146548  0.34411614  0.24048129  1
  C  C266  1  0.59368212  0.10510581  0.47800871  1
  N  N267  1  0.59462921  0.09339487  0.19821459  1
  C  C268  1  0.54121997  0.42576545  0.27299861  1
  H  H269  1  0.71576352  0.14544142  0.35380270  1
  H  H270  1  0.57396981  0.34203893  0.39271409  1
  C  C271  1  0.58810066  0.49277835  0.29962418  1
  H  H272  1  0.71309808  0.30231313  0.46561636  1
  C  C273  1  0.62403824  0.31255362  0.25319684  1
  C  C274  1  0.65715063  0.08634885  0.22066818  1
  C  C275  1  0.54688456  0.15823898  0.07809631  1
  H  H276  1  0.72004753  0.35517233  0.28409550  1
  C  C277  1  0.69195487  0.40892555  0.11354008  1
  Zn  Zn278  1  0.51725904  0.04764639  0.25520292  1
  C  C279  1  0.60272958  0.25802166  0.48572345  1
  H  H280  1  0.59555181  0.42912108  0.14489134  1
  N  N281  1  0.74856353  0.22720813  0.01936286  1
  H  H282  1  0.52433886  0.30028543  0.21394036  1
  H  H283  1  0.54741122  0.20891066  0.30672742  1
  H  H284  1  0.70848205  0.07024509  0.02673103  1
  C  C285  1  0.57011577  0.18632851  0.00715786  1
  H  H286  1  0.57947564  0.12630092  0.78288462  1
  C  C287  1  0.60726605  0.01930638  0.50889412  1
  C  C288  1  0.65695132  0.24160365  0.84145956  1
  C  C289  1  0.58443383  0.36133819  0.71504546  1
  N  N290  1  0.61333351  0.17846701  0.51756076  1
  H  H291  1  0.61330226  0.25031438  0.81657224  1
  Zn  Zn292  1  0.65604837  0.17152031  0.61307434  1
  C  C293  1  0.67096469  0.23607759  0.92004293  1
  C  C294  1  0.71765015  0.47022539  0.94924821  1
  H  H295  1  0.59148174  0.34747561  0.65235560  1
  H  H296  1  0.54061504  0.19703900  0.95482460  1
  H  H297  1  0.62087133  0.31528786  0.51946325  1
  C  C298  1  0.59463130  0.05359628  0.78462501  1
  H  H299  1  0.73281172  0.39035695  0.85044635  1
  C  C300  1  0.55046846  0.40412441  0.86458356  1
  C  C301  1  0.63629116  0.01740476  0.72922136  1
  C  C302  1  0.70275345  0.23205071  0.78665899  1
  C  C303  1  0.61152347  0.43510590  0.75358897  1
  H  H304  1  0.68903226  0.23570390  0.72373568  1
  N  N305  1  0.66584819  0.04680842  0.66654402  1
  C  C306  1  0.51887762  0.32932734  0.82362035  1
  H  H307  1  0.70479580  0.41162158  0.98388336  1
  C  C308  1  0.59520713  0.46037148  0.82646313  1
  C  C309  1  0.73137669  0.45896539  0.87274954  1
  C  C310  1  0.73705202  0.23051303  0.94067071  1
  N  N311  1  0.70180909  0.48882687  0.63358683  1
  C  C312  1  0.53910942  0.30656129  0.74871874  1
  C  C313  1  0.73158582  0.01149742  0.91981121  1
  H  H314  1  0.53002634  0.01437258  0.87922894  1
  C  C315  1  0.52408371  0.40447794  0.94102970  1
  H  H316  1  0.64606795  0.47761109  0.72419871  1
  C  C317  1  0.53494611  0.47137778  0.99927211  1
  H  H318  1  0.68117969  0.02397993  0.89965659  1
  C  C319  1  0.63512191  0.21464463  0.99128930  1
  H  H320  1  0.52322658  0.24801372  0.71671373  1
  H  H321  1  0.62935860  0.01274900  0.56522833  1
  C  C322  1  0.74779462  0.03283140  0.99456474  1
  N  N323  1  0.63830786  0.80538504  0.13044070  1
  Zn  Zn324  1  0.60915976  0.69286959  0.34990486  1
  N  N325  1  0.61333503  0.73825847  0.45925156  1
  C  C326  1  0.70815037  0.60133690  0.16110806  1
  H  H327  1  0.60911324  0.59631421  0.17215641  1
  C  C328  1  0.64941400  0.55691892  0.15433569  1
  H  H329  1  0.51224584  0.82162086  0.08392995  1
  C  C330  1  0.74177329  0.57257727  0.46377049  1
  C  C331  1  0.50645360  0.79254285  0.02767573  1
  H  H332  1  0.68559337  0.89536594  0.36486693  1
  H  H333  1  0.60746655  0.88103757  0.47500980  1
  H  H334  1  0.70164934  0.56873263  0.03684543  1
  N  N335  1  0.61534282  0.79634543  0.25800216  1
  C  C336  1  0.59862956  0.77561228  0.18221851  1
  N  N337  1  0.71740644  0.67042187  0.34785380  1
  C  C338  1  0.56870927  0.95990028  0.38520688  1
  C  C339  1  0.66454385  0.85665046  0.25053255  1
  Zn  Zn340  1  0.65143280  0.75532625  0.02045034  1
  C  C341  1  0.68119551  0.86103325  0.16897572  1
  H  H342  1  0.56881086  0.71941435  0.16425970  1
  N  N343  1  0.55729859  0.57346672  0.31939984  1
  H  H344  1  0.55398284  0.90586872  0.34902237  1
  C  C345  1  0.59781397  0.94865799  0.45677686  1
  H  H346  1  0.71375886  0.74709821  0.47335075  1
  H  H347  1  0.70811388  0.66897891  0.18239419  1
  C  C348  1  0.70267363  0.90007287  0.30566804  1
  H  H349  1  0.50007090  0.50380630  0.11063279  1
  H  H350  1  0.68989235  0.50886027  0.32831710  1
  C  C351  1  0.74585673  0.88342680  0.14841132  1
  H  H352  1  0.69316201  0.57971503  0.48936175  1
  H  H353  1  0.52827839  0.57208792  0.78285968  1
  H  H354  1  0.64430257  0.78797905  0.78708072  1
  N  N355  1  0.72168259  0.71569348  0.96348350  1
  H  H356  1  0.57663633  0.74544566  0.71118883  1
  C  C357  1  0.58811756  0.89981485  0.83751430  1
  C  C358  1  0.56334884  0.74267008  0.50970337  1
  N  N359  1  0.65934760  0.76493135  0.57541266  1
  C  C360  1  0.55436252  0.64310921  0.87654376  1
  C  C361  1  0.53102642  0.70104626  0.93429422  1
  H  H362  1  0.64278435  0.59746985  0.60597327  1
  C  C363  1  0.50729761  0.61691753  0.82469310  1
  C  C364  1  0.65634627  0.91928315  0.73150064  1
  H  H365  1  0.74703927  0.82642391  0.78668420  1
  H  H366  1  0.60537851  0.61909882  0.87046108  1
  C  C367  1  0.71279737  0.55866860  0.97859069  1
  N  N368  1  0.74107759  0.63247312  0.63415949  1
  C  C369  1  0.56830008  0.99165912  0.83716454  1
  N  N370  1  0.69882847  0.89841893  0.67379659  1
  C  C371  1  0.74184458  0.62177218  0.85041625  1
  C  C372  1  0.70350495  0.97739092  0.63943302  1
  C  C373  1  0.59370899  0.75626197  0.58588030  1
  H  H374  1  0.56735138  0.85300733  0.87569019  1
  H  H375  1  0.56315100  0.53205346  0.99413349  1
  N  N376  1  0.74684600  0.76181727  0.76159186  1
  C  C377  1  0.69114494  0.57685396  0.62351680  1
  Zn  Zn378  1  0.74258715  0.77384501  0.64663077  1
  C  C379  1  0.62956563  0.86044806  0.78638262  1
  C  C380  1  0.55688771  0.75043970  0.65340284  1
  H  H381  1  0.50562030  0.89598147  0.56878306  1
  C  C382  1  0.72571866  0.63267611  0.93184188  1
  H  H383  1  0.72172387  0.77027331  0.92881984  1
  H  H384  1  0.61887620  0.51938885  0.85670992  1
  H  H385  1  0.73661590  0.98622093  0.58981795  1
  C  C386  1  0.74822459  0.53032270  0.82498472  1
  C  C387  1  0.74529010  0.69637738  0.79754868  1
  N  N388  1  0.55545384  0.75364247  0.99004889  1
  C  C389  1  0.66752206  0.75250374  0.50074688  1
  C  C390  1  0.87061747  0.02053851  0.41892750  1
  H  H391  1  0.98323519  0.28570831  0.04060781  1
  C  C392  1  0.85239237  0.48099406  0.10927683  1
  C  C393  1  0.93756110  0.21153558  0.20547494  1
  N  N394  1  0.92435747  0.26136384  0.13734929  1
  C  C395  1  0.76480634  0.29282548  0.47599116  1
  C  C396  1  0.81297823  0.32701603  0.42937050  1
  C  C397  1  0.90007132  0.17912678  0.26528601  1
  H  H398  1  0.90502401  0.47853687  0.10572603  1
  C  C399  1  0.99190246  0.46305624  0.23157203  1
  N  N400  1  0.83578303  0.17750682  0.26536822  1
  Zn  Zn401  1  0.82819288  0.28407144  0.08742065  1
  H  H402  1  0.93188255  0.06918561  0.12458355  1
  H  H403  1  0.94816440  0.45457717  0.19577136  1
  C  C404  1  0.93861613  0.13140075  0.33010124  1
  H  H405  1  0.80554342  0.37015213  0.38053222  1
  H  H406  1  0.95348913  0.19011223  0.36893391  1
  H  H407  1  0.89291501  0.47325163  0.48711327  1
  C  C408  1  0.87725490  0.08748847  0.36756204  1
  C  C409  1  0.82242939  0.12935830  0.33443558  1
  N  N410  1  0.81203884  0.41487896  0.09997148  1
  H  H411  1  0.91364309  0.32752921  0.39679786  1
  C  C412  1  0.76224018  0.11234394  0.37097359  1
  C  C413  1  0.97828647  0.26003800  0.09767015  1
  Zn  Zn414  1  0.78656562  0.13367753  0.17133770  1
  C  C415  1  0.87911422  0.30604144  0.43816401  1
  N  N416  1  0.83746057  0.05352346  0.09183098  1
  C  C417  1  0.75697890  0.04623714  0.42616480  1
  C  C418  1  0.75354761  0.45397438  0.12219010  1
  C  C419  1  0.90180244  0.25239268  0.49657227  1
  C  C420  1  0.80907828  0.01911317  0.02564197  1
  C  C421  1  0.89966331  0.03639895  0.08020360  1
  C  C422  1  0.99300269  0.07773373  0.29706130  1
  Zn  Zn423  1  0.93427095  0.07970155  0.64209420  1
  H  H424  1  0.90183108  0.36427784  0.68771840  1
  C  C425  1  0.76508765  0.48324275  0.65698597  1
  N  N426  1  0.85863555  0.15754211  0.60982358  1
  C  C427  1  0.80278211  0.40501766  0.66467104  1
  C  C428  1  0.90773803  0.25239799  0.77793503  1
  C  C429  1  0.93269197  0.16653585  0.79537551  1
  C  C430  1  0.97445431  0.02831780  0.80472474  1
  N  N431  1  0.75285837  0.20470321  0.60195854  1
  C  C432  1  0.80006548  0.15864720  0.64008663  1
  H  H433  1  0.83292056  0.19119203  0.89959232  1
  H  H434  1  0.79558826  0.10603717  0.68302949  1
  C  C435  1  0.91488444  0.29092538  0.91187442  1
  H  H436  1  0.87608545  0.37663857  0.82280057  1
  C  C437  1  0.95446753  0.14426328  0.87278259  1
  C  C438  1  0.89960210  0.31520659  0.83659195  1
  C  C439  1  0.78652784  0.24335051  0.53991677  1
  H  H440  1  0.80422363  0.21417599  0.76395274  1
  N  N441  1  0.94977183  0.08950198  0.75572668  1
  C  C442  1  0.86711432  0.42020616  0.68059807  1
  H  H443  1  0.89266146  0.26588643  0.72028800  1
  H  H444  1  0.90693603  0.34275197  0.95673882  1
  C  C445  1  0.93969733  0.20574141  0.93134739  1
  C  C446  1  0.85350139  0.22070306  0.54997137  1
  H  H447  1  0.78615797  0.47852837  0.54517108  1
  H  H448  1  0.94835692  0.18595255  0.99173567  1
  N  N449  1  0.98160545  0.05552324  0.87635836  1
  C  C450  1  0.78450967  0.20923550  0.88450125  1
  H  H451  1  0.78077184  0.33659755  0.65861601  1
  H  H452  1  0.95234016  0.24362604  0.50520075  1
  C  C453  1  0.76798538  0.21557351  0.80878602  1
  C  C454  1  0.85509467  0.51513137  0.45930870  1
  H  H455  1  0.83647233  0.92850472  0.19163497  1
  H  H456  1  0.90807715  0.52390204  0.35356443  1
  C  C457  1  0.76354243  0.54958517  0.14477989  1
  N  N458  1  0.97084321  0.63371655  0.25211509  1
  N  N459  1  0.82840124  0.56149178  0.13840701  1
  N  N460  1  0.86469474  0.76544407  0.12474960  1
  C  C461  1  0.75430065  0.61346550  0.39514952  1
  N  N462  1  0.81593578  0.66010282  0.29099658  1
  H  H463  1  0.79747885  0.95782182  0.32012195  1
  H  H464  1  0.82500730  0.74638123  0.09426028  1
  C  C465  1  0.86610323  0.54823171  0.38721912  1
  C  C466  1  0.78619627  0.91086060  0.20608690  1
  H  H467  1  0.90432982  0.70679786  0.39716571  1
  C  C468  1  0.90826988  0.75391715  0.44392840  1
  C  C469  1  0.89332964  0.83307470  0.11724751  1
  C  C470  1  0.81589807  0.60596441  0.35542009  1
  Zn  Zn471  1  0.87729494  0.65990030  0.20091526  1
  H  H472  1  0.93708607  0.84277692  0.15306223  1
  C  C473  1  0.95763677  0.82000832  0.44163105  1
  C  C474  1  0.76280368  0.93090959  0.28154994  1
  H  H475  1  0.98650597  0.76557788  0.29807508  1
  H  H476  1  0.76023120  0.88552208  0.09083681  1
  C  C477  1  0.75989638  0.70118328  0.29474832  1
  H  H478  1  0.87764973  0.87972897  0.07360932  1
  H  H479  1  0.82137058  0.69261748  0.49656705  1
  H  H480  1  0.91355759  0.98656866  0.43564886  1
  H  H481  1  0.97786216  0.59308676  0.44423831  1
  C  C482  1  0.81067238  0.99545885  0.44724988  1
  C  C483  1  0.85913997  0.74657488  0.49663051  1
  C  C484  1  0.96367928  0.88524026  0.49934346  1
  C  C485  1  0.79425037  0.52223492  0.49446610  1
  H  H486  1  0.99882186  0.93830296  0.49748484  1
  H  H487  1  0.99703965  0.81893035  0.39739589  1
  H  H488  1  0.75084275  0.75042332  0.24986009  1
  N  N489  1  0.91369010  0.99763009  0.01377904  1
  H  H490  1  0.81247231  0.94794579  0.49206483  1
  H  H491  1  0.82358874  0.92324235  0.69974059  1
  H  H492  1  0.86365404  0.58947031  0.85018285  1
  C  C493  1  0.78198976  0.97648693  0.87452116  1
  H  H494  1  0.94122389  0.50468066  0.70235411  1
  N  N495  1  0.82967915  0.82819435  0.61793307  1
  C  C496  1  0.88630072  0.64974413  0.86980033  1
  C  C497  1  0.84523461  0.95902895  0.89818055  1
  C  C498  1  0.96643065  0.77875097  0.91845194  1
  C  C499  1  0.85711545  0.58832910  0.67528349  1
  H  H500  1  0.95840414  0.60410703  0.78753810  1
  H  H501  1  0.99039437  0.96360648  0.78227481  1
  C  C502  1  0.86514065  0.81785545  0.55261229  1
  C  C503  1  0.85963460  0.98094652  0.97416859  1
  C  C504  1  0.85248761  0.89872517  0.65113456  1
  C  C505  1  0.86074476  0.71407949  0.92376816  1
  H  H506  1  0.88252477  0.93073888  0.86113733  1
  C  C507  1  0.90359692  0.78240302  0.94771286  1
  N  N508  1  0.90486586  0.94514484  0.61511955  1
  C  C509  1  0.89199840  0.50817964  0.68851041  1
  C  C510  1  0.91593638  0.88828548  0.55466396  1
  H  H511  1  0.87941781  0.65607205  0.67826117  1
  H  H512  1  0.81321202  0.70776684  0.94295050  1
  H  H513  1  0.77135826  0.96110666  0.81568099  1
  C  C514  1  0.94685663  0.64809150  0.83390148  1
  C  C515  1  0.79156625  0.57503447  0.65456558  1
  C  C516  1  0.98873983  0.71871318  0.85623277  1
  C  C517  1  0.99620950  0.61693478  0.56503736  1
  H  H518  1  0.98027779  0.68598186  0.56248072  1
  H  H519  1  0.75718308  0.50659830  0.76525469  1
  C  C520  1  0.99206366  0.56309906  0.50056484  1
  H  H521  1  0.88630680  0.84060927  0.97946281  1
