# generated using pymatgen
data_CuH12(C8O3)2
_symmetry_space_group_name_H-M   'P 1'
_cell_length_a   15.65477080
_cell_length_b   42.09402987
_cell_length_c   13.27020433
_cell_angle_alpha   90.00000000
_cell_angle_beta   90.00000000
_cell_angle_gamma   90.00000000
_symmetry_Int_Tables_number   1
_chemical_formula_structural   CuH12(C8O3)2
_chemical_formula_sum   'Cu16 H192 C256 O96'
_cell_volume   8744.69825851
_cell_formula_units_Z   16
loop_
 _symmetry_equiv_pos_site_id
 _symmetry_equiv_pos_as_xyz
  1  'x, y, z'
loop_
 _atom_site_type_symbol
 _atom_site_label
 _atom_site_symmetry_multiplicity
 _atom_site_fract_x
 _atom_site_fract_y
 _atom_site_fract_z
 _atom_site_occupancy
  C  C0  1  0.21173285  0.20966072  0.30890035  1
  H  H1  1  0.16096801  0.20088856  0.36020658  1
  C  C2  1  0.19122785  0.22136362  0.21556729  1
  C  C3  1  0.10235112  0.22317396  0.17789709  1
  O  O4  1  0.09153943  0.23228920  0.07155648  1
  O  O5  1  0.04599970  0.21566072  0.22931362  1
  C  C6  1  0.01304015  0.24405292  0.04189793  1
  H  H7  1  0.24475588  0.24288757  0.07735974  1
  C  C8  1  0.10883214  0.23330123  0.71288517  1
  H  H9  1  0.05102177  0.20762503  0.58724653  1
  H  H10  1  0.18299471  0.24953761  0.52838452  1
  C  C11  1  0.17418964  0.20601655  0.72067839  1
  C  C12  1  0.04652166  0.22925562  0.64093467  1
  C  C13  1  0.13750798  0.18353033  0.78989960  1
  H  H14  1  0.07391185  0.18748328  0.81799465  1
  C  C15  1  0.18473005  0.15643865  0.80488863  1
  H  H16  1  0.16459377  0.13741563  0.85007530  1
  H  H17  1  0.24027618  0.21958675  0.85527179  1
  C  C18  1  0.14319105  0.40293007  0.40893978  1
  C  C19  1  0.12239030  0.40148392  0.22907890  1
  C  C20  1  0.11934543  0.42102645  0.31699333  1
  C  C21  1  0.09587897  0.45362892  0.32831888  1
  O  O22  1  0.15597147  0.37270042  0.41065070  1
  C  C23  1  0.09832195  0.41811146  0.14385618  1
  C  C24  1  0.06976142  0.45058634  0.15225139  1
  C  C25  1  0.16536104  0.31331619  0.30588767  1
  C  C26  1  0.18902399  0.32095688  0.20567100  1
  H  H27  1  0.22262679  0.30830820  0.35493204  1
  O  O28  1  0.15347916  0.41808576  0.48922537  1
  H  H29  1  0.13995262  0.37582711  0.23165676  1
  C  C30  1  0.11736151  0.32792380  0.14333873  1
  C  C31  1  0.07208715  0.46902409  0.24183516  1
  H  H32  1  0.09590289  0.46392791  0.40282129  1
  H  H33  1  0.09493339  0.40612201  0.07083132  1
  C  C34  1  0.08482068  0.31243879  0.34975189  1
  C  C35  1  0.03410438  0.46538340  0.06012771  1
  C  C36  1  0.07742912  0.30670740  0.45798096  1
  C  C37  1  0.12412779  0.33943969  0.03799814  1
  H  H38  1  0.24057420  0.30855300  0.01626155  1
  C  C39  1  0.03601435  0.32265997  0.18717873  1
  H  H40  1  0.00647679  0.27116335  0.03730404  1
  O  O41  1  0.00466117  0.30199193  0.49123780  1
  C  C42  1  0.01335787  0.31706237  0.28658092  1
  C  C43  1  0.23579151  0.25478403  0.58220437  1
  O  O44  1  0.14356422  0.31223237  0.50861900  1
  H  H45  1  0.02003962  0.38241881  0.86159533  1
  O  O46  1  0.13972946  0.44080504  0.95200058  1
  C  C47  1  0.11325504  0.25924212  0.78259672  1
  O  O48  1  0.07860628  0.38040048  0.69790919  1
  O  O49  1  0.05744248  0.49571669  0.58092867  1
  C  C50  1  0.06362149  0.36604455  0.89642813  1
  H  H51  1  0.20474487  0.26493546  0.65082685  1
  H  H52  1  0.13016692  0.41604917  0.80760976  1
  C  C53  1  0.05724880  0.35972759  0.99903423  1
  O  O54  1  0.19025722  0.35022167  0.67149081  1
  O  O55  1  0.11528075  0.45570534  0.66458371  1
  Cu  Cu56  1  0.19051041  0.35161307  0.52745915  1
  C  C57  1  0.01730289  0.46776064  0.88161296  1
  C  C58  1  0.12709522  0.35188261  0.83671890  1
  C  C59  1  0.12169473  0.48278255  0.62527429  1
  C  C60  1  0.06863565  0.45717318  0.96025651  1
  Cu  Cu61  1  0.08901016  0.41553906  0.60761415  1
  H  H62  1  0.18473396  0.45353388  0.80330695  1
  C  C63  1  0.13632469  0.36135806  0.73123906  1
  C  C64  1  0.19220252  0.33331190  0.87976056  1
  C  C65  1  0.19366507  0.32565839  0.98265884  1
  C  C66  1  0.17418702  0.43149820  0.85037349  1
  H  H67  1  0.24517101  0.32562997  0.83357716  1
  H  H68  1  0.03326326  0.46112489  0.80379077  1
  C  C69  1  0.04759652  0.28102621  0.76884409  1
  O  O70  1  0.17830502  0.26450355  0.84791661  1
  H  H71  1  0.23667952  0.41959169  0.85549557  1
  H  H72  1  0.05008875  0.30278360  0.81613979  1
  C  C73  1  0.01982771  0.65317720  0.31714036  1
  C  C74  1  0.02829041  0.68757027  0.28540391  1
  C  C75  1  0.07851755  0.69000737  0.19370012  1
  H  H76  1  0.10711887  0.66932537  0.16118030  1
  C  C77  1  0.07575939  0.64360273  0.39871496  1
  C  C78  1  0.05567691  0.61269315  0.42746186  1
  C  C79  1  0.11301971  0.71924142  0.16890854  1
  H  H80  1  0.15958584  0.72094260  0.10983950  1
  H  H81  1  0.13626153  0.71394636  0.36782173  1
  O  O82  1  0.13749961  0.66183414  0.44338336  1
  C  C83  1  0.05872362  0.51916473  0.32922186  1
  H  H84  1  0.12362703  0.52504414  0.35894472  1
  H  H85  1  0.02905402  0.54313462  0.30722713  1
  H  H86  1  0.03939341  0.59291461  0.08522165  1
  O  O87  1  0.21703471  0.50140791  0.10165051  1
  C  C88  1  0.21098150  0.63913106  0.02783834  1
  C  C89  1  0.01119826  0.57020338  0.06073912  1
  H  H90  1  0.22870889  0.66373422  0.05673100  1
  C  C91  1  0.17013849  0.73425218  0.39938298  1
  H  H92  1  0.06715800  0.55615930  0.02761381  1
  O  O93  1  0.04901517  0.50090629  0.23916720  1
  C  C94  1  0.02465314  0.74388627  0.29500207  1
  H  H95  1  0.02242669  0.50997556  0.39624671  1
  C  C96  1  0.08109096  0.74759144  0.21434774  1
  H  H97  1  0.09543604  0.60466225  0.49186198  1
  O  O98  1  0.20805279  0.73354664  0.49340265  1
  H  H99  1  0.22207874  0.73797105  0.34073847  1
  C  C100  1  0.24762444  0.58336616  0.99238169  1
  H  H101  1  0.03047009  0.74594518  0.51831695  1
  H  H102  1  0.16574206  0.71137939  0.84168646  1
  H  H103  1  0.04226741  0.55424295  0.85434590  1
  O  O104  1  0.22672683  0.65274360  0.74325330  1
  H  H105  1  0.15338447  0.53887609  0.53144978  1
  C  C106  1  0.17105520  0.65212526  0.53897413  1
  O  O107  1  0.00511925  0.55585608  0.53333271  1
  H  H108  1  0.19374085  0.60547872  0.78550792  1
  H  H109  1  0.08819149  0.51956315  0.79699789  1
  C  C110  1  0.10052046  0.54544653  0.81141649  1
  O  O111  1  0.17207375  0.54961658  0.87382965  1
  C  C112  1  0.01777713  0.73587952  0.67431993  1
  H  H113  1  0.10419320  0.55897401  0.73546210  1
  C  C114  1  0.03320836  0.63472958  0.80644756  1
  C  C115  1  0.17747463  0.57808264  0.92687784  1
  C  C116  1  0.18164780  0.71980037  0.67727622  1
  H  H117  1  0.08993538  0.64937748  0.79670306  1
  H  H118  1  0.08824341  0.65398476  0.96730938  1
  C  C119  1  0.13503539  0.63497694  0.97595282  1
  C  C120  1  0.12050168  0.60463147  0.93082186  1
  C  C121  1  0.06792449  0.73768368  0.58606327  1
  C  C122  1  0.05060203  0.72702411  0.76799248  1
  H  H123  1  0.11692666  0.64973127  0.59721391  1
  C  C124  1  0.13506707  0.71788185  0.77013380  1
  C  C125  1  0.03514393  0.60941933  0.87853168  1
  C  C126  1  0.20875309  0.53035052  0.57219679  1
  C  C127  1  0.15432607  0.73035941  0.58113204  1
  H  H128  1  0.21149425  0.63066633  0.54847122  1
  H  H129  1  0.20107858  0.67487864  0.57039822  1
  H  H130  1  0.01602703  0.72786828  0.83838142  1
  C  C131  1  0.20167564  0.50076103  0.62356969  1
  O  O132  1  0.07607512  0.80247452  0.25597668  1
  Cu  Cu133  1  0.13777781  0.83034361  0.32118874  1
  C  C134  1  0.10581656  0.78081730  0.19045827  1
  O  O135  1  0.15855759  0.78749856  0.13035881  1
  H  H136  1  0.12077439  0.75465378  0.40029213  1
  O  O137  1  0.11219066  0.81377658  0.45357914  1
  O  O138  1  0.19627528  0.86085258  0.37626733  1
  H  H139  1  0.03246194  0.76545328  0.02819723  1
  H  H140  1  0.21919215  0.91149581  0.48895808  1
  H  H141  1  0.01081147  0.76746371  0.32769537  1
  O  O142  1  0.00481522  0.90531304  0.78533494  1
  C  C143  1  0.19616905  0.94790838  0.71780297  1
  C  C144  1  0.17463354  0.85479957  0.59187915  1
  C  C145  1  0.08461505  0.85060293  0.58708070  1
  C  C146  1  0.06005368  0.82581431  0.51574058  1
  C  C147  1  0.23649102  0.97606326  0.74673855  1
  C  C148  1  0.20694108  0.87643005  0.65973800  1
  H  H149  1  0.22564764  0.85414449  0.83234554  1
  H  H150  1  0.13124223  0.86479652  0.89120780  1
  C  C151  1  0.03641157  0.92386535  0.86359174  1
  H  H152  1  0.06019913  0.94804086  0.84546162  1
  C  C153  1  0.02995434  0.86631187  0.65359322  1
  H  H154  1  0.21486156  0.84016940  0.53851314  1
  C  C155  1  0.05955176  0.88899333  0.72165052  1
  C  C156  1  0.23099022  0.91732082  0.87652776  1
  C  C157  1  0.19514147  0.91957112  0.77800193  1
  C  C158  1  0.20365218  0.86275195  0.90761447  1
  C  C159  1  0.14832901  0.89385965  0.72020623  1
  H  H160  1  0.15813223  0.94410929  0.64813339  1
  H  H161  1  0.09313726  0.90929388  0.89096829  1
  H  H162  1  0.21499518  0.84370702  0.96671325  1
  O  O163  1  0.02470779  0.79810620  0.88601397  1
  O  O164  1  0.23459124  0.89238310  0.94183310  1
  H  H165  1  0.23563031  0.99887630  0.70044212  1
  C  C166  1  0.45801901  0.17228246  0.24131658  1
  H  H167  1  0.48154768  0.15256617  0.19580518  1
  Cu  Cu168  1  0.41676798  0.03258863  0.01640896  1
  C  C169  1  0.45434307  0.09416922  0.03700096  1
  O  O170  1  0.47793788  0.06696683  0.06370869  1
  H  H171  1  0.43524694  0.19273151  0.19190207  1
  H  H172  1  0.40187021  0.16500791  0.29085946  1
  C  C173  1  0.43349159  0.22768469  0.36460713  1
  C  C174  1  0.36001818  0.22446793  0.28941608  1
  C  C175  1  0.34516284  0.23739763  0.19131173  1
  C  C176  1  0.29694848  0.20998321  0.34651535  1
  H  H177  1  0.31209410  0.19988150  0.42277422  1
  C  C178  1  0.26135875  0.23477428  0.15790842  1
  C  C179  1  0.48688786  0.15099017  0.00216115  1
  C  C180  1  0.49411721  0.24856383  0.14690365  1
  C  C181  1  0.31028674  0.00284359  0.88969748  1
  H  H182  1  0.29127258  0.24965658  0.77577964  1
  C  C183  1  0.25308714  0.24522411  0.84677816  1
  O  O184  1  0.38570080  0.09751672  0.98937873  1
  H  H185  1  0.36142972  0.17408606  0.65832816  1
  Cu  Cu186  1  0.33937694  0.06969936  0.89118002  1
  C  C187  1  0.29822672  0.17771009  0.69404186  1
  O  O188  1  0.27422275  0.10336467  0.82334703  1
  C  C189  1  0.31491816  0.12640731  0.78084906  1
  H  H190  1  0.42716860  0.15332183  0.95667060  1
  Cu  Cu191  1  0.45380278  0.08780303  0.78322193  1
  O  O192  1  0.39106800  0.12236648  0.75171554  1
  O  O193  1  0.30255445  0.02915760  0.84278544  1
  C  C194  1  0.25436548  0.20634919  0.67536615  1
  O  O195  1  0.29084260  0.22827666  0.61273313  1
  C  C196  1  0.26637119  0.15493209  0.76078659  1
  C  C197  1  0.49557026  0.00659669  0.65383384  1
  O  O198  1  0.33944137  0.00325325  0.97716775  1
  C  C199  1  0.42543643  0.34799076  0.40122982  1
  C  C200  1  0.42466822  0.37527400  0.23508516  1
  C  C201  1  0.39800205  0.37288423  0.33511348  1
  O  O202  1  0.39587251  0.39840568  0.17443743  1
  H  H203  1  0.35165774  0.39038182  0.36241619  1
  O  O204  1  0.40636032  0.45023891  0.45842283  1
  C  C205  1  0.36082536  0.48413293  0.09094975  1
  C  C206  1  0.34504294  0.42209288  0.22214610  1
  H  H207  1  0.38335762  0.43450659  0.28705400  1
  H  H208  1  0.39586767  0.31205264  0.19263142  1
  C  C209  1  0.32135602  0.46090602  0.47503497  1
  C  C210  1  0.44579070  0.48357237  0.12823338  1
  C  C211  1  0.33686636  0.31201361  0.24423078  1
  H  H212  1  0.29032009  0.46726150  0.40382274  1
  H  H213  1  0.31298316  0.44244700  0.18324506  1
  C  C214  1  0.45809270  0.47051940  0.40800384  1
  H  H215  1  0.32946108  0.28814249  0.27833143  1
  H  H216  1  0.35282616  0.32791544  0.30630389  1
  H  H217  1  0.43664551  0.37008444  0.02598274  1
  H  H218  1  0.29079478  0.40881086  0.25423687  1
  C  C219  1  0.48657667  0.32649152  0.38029394  1
  C  C220  1  0.48564002  0.35128195  0.21067402  1
  C  C221  1  0.48746419  0.35243688  0.02476407  1
  O  O222  1  0.26971174  0.32229898  0.17276071  1
  H  H223  1  0.34754656  0.26534038  0.42070270  1
  O  O224  1  0.40589059  0.25001652  0.12547022  1
  C  C225  1  0.40835539  0.25192309  0.43210381  1
  H  H226  1  0.49703574  0.30794780  0.43555697  1
  C  C227  1  0.37330996  0.34370249  0.49532267  1
  C  C228  1  0.44234139  0.49981190  0.36529074  1
  H  H229  1  0.45867864  0.49299546  0.20416124  1
  H  H230  1  0.49468538  0.34601619  0.86072087  1
  H  H231  1  0.28268026  0.44042718  0.51503057  1
  H  H232  1  0.31429458  0.48380901  0.52083877  1
  H  H233  1  0.46710124  0.49185797  0.85532905  1
  C  C234  1  0.46157751  0.25754011  0.51680655  1
  H  H235  1  0.27637833  0.27408833  0.55153268  1
  C  C236  1  0.34452020  0.46961515  0.99859133  1
  H  H237  1  0.26555294  0.46090958  0.70337562  1
  C  C238  1  0.48824490  0.45440739  0.97815620  1
  C  C239  1  0.40131116  0.45357906  0.93719708  1
  C  C240  1  0.44462248  0.42058970  0.80427849  1
  O  O241  1  0.31001800  0.36430962  0.50842787  1
  H  H242  1  0.44837980  0.27734338  0.56617490  1
  H  H243  1  0.42063263  0.41070855  0.73130448  1
  H  H244  1  0.27696252  0.47072042  0.97145995  1
  H  H245  1  0.46781561  0.40013447  0.85308133  1
  C  C246  1  0.26863006  0.48597456  0.67251632  1
  O  O247  1  0.37797125  0.43900175  0.85030863  1
  H  H248  1  0.39204225  0.49655075  0.73614564  1
  O  O249  1  0.38486289  0.32255234  0.55306440  1
  H  H250  1  0.28700233  0.25444696  0.91322486  1
  Cu  Cu251  1  0.32698012  0.56093380  0.20107962  1
  O  O252  1  0.37903948  0.59188155  0.12971686  1
  O  O253  1  0.30292989  0.51921679  0.21612012  1
  C  C254  1  0.33848254  0.61931391  0.10529448  1
  O  O255  1  0.36097846  0.64415271  0.13503615  1
  O  O256  1  0.40333988  0.55918367  0.30572946  1
  H  H257  1  0.38016070  0.51070955  0.37411844  1
  C  C258  1  0.26580422  0.61257533  0.04087158  1
  C  C259  1  0.28707876  0.50170733  0.13737136  1
  C  C260  1  0.47743594  0.55100818  0.27965504  1
  H  H261  1  0.28821971  0.56257686  0.00202756  1
  C  C262  1  0.49859258  0.51920046  0.31132526  1
  C  C263  1  0.49640305  0.55786045  0.68623513  1
  C  C264  1  0.28392465  0.67354183  0.70947203  1
  H  H265  1  0.42251274  0.57865297  0.51313062  1
  H  H266  1  0.36957103  0.61787898  0.51515656  1
  H  H267  1  0.47433117  0.72944794  0.61607529  1
  C  C268  1  0.27964314  0.54966530  0.58587724  1
  H  H269  1  0.39223043  0.60088331  0.92604376  1
  C  C270  1  0.33609266  0.72780188  0.65134439  1
  H  H271  1  0.41685679  0.52289844  0.53772115  1
  C  C272  1  0.43303117  0.68299920  0.66698451  1
  O  O273  1  0.28615749  0.58002940  0.54556851  1
  C  C274  1  0.42074159  0.58952463  0.86051718  1
  C  C275  1  0.40797137  0.55636827  0.70991117  1
  C  C276  1  0.36996766  0.59334053  0.55343106  1
  C  C277  1  0.36924558  0.66308437  0.70160944  1
  H  H278  1  0.30614677  0.56589035  0.81726020  1
  C  C279  1  0.34011874  0.53655274  0.65406206  1
  H  H280  1  0.39848747  0.59739795  0.62683395  1
  H  H281  1  0.27889250  0.60774687  0.70364419  1
  C  C282  1  0.25002991  0.62103486  0.76966655  1
  H  H283  1  0.38918854  0.63899830  0.72701306  1
  H  H284  1  0.29447252  0.62032622  0.83644116  1
  C  C285  1  0.27251297  0.70626761  0.68020313  1
  C  C286  1  0.41914566  0.71530575  0.64248715  1
  C  C287  1  0.37372930  0.56960086  0.79944835  1
  C  C288  1  0.48741937  0.52012686  0.55633382  1
  C  C289  1  0.33987473  0.50532864  0.68803143  1
  H  H290  1  0.48969316  0.50124644  0.61618812  1
  O  O291  1  0.32071173  0.84383655  0.32663129  1
  C  C292  1  0.33181587  0.88246892  0.44718323  1
  H  H293  1  0.45227566  0.86161644  0.41224371  1
  C  C294  1  0.27885527  0.86104777  0.38016086  1
  C  C295  1  0.42040240  0.88034112  0.45467924  1
  H  H296  1  0.39461499  0.96187605  0.42958172  1
  C  C297  1  0.46132555  0.96707866  0.40710715  1
  C  C298  1  0.28449861  0.90581129  0.49886893  1
  O  O299  1  0.48533818  0.99149390  0.47503801  1
  H  H300  1  0.46310647  0.97530765  0.32703345  1
  C  C301  1  0.27135173  0.97436100  0.84574021  1
  C  C302  1  0.47911887  0.98548011  0.57374107  1
  H  H303  1  0.29935589  0.94687589  0.60053826  1
  C  C304  1  0.26837320  0.94616874  0.90158018  1
  H  H305  1  0.29212449  0.94345799  0.98023659  1
  H  H306  1  0.46019981  0.96434054  0.87401375  1
  H  H307  1  0.27620032  0.87996512  0.66626960  1
  H  H308  1  0.43077521  0.92361398  0.74097614  1
  C  C309  1  0.46762482  0.96964864  0.79540523  1
  C  C310  1  0.47159463  0.90136421  0.51049179  1
  H  H311  1  0.32039373  0.75306198  0.63026989  1
  C  C312  1  0.33018630  0.92767231  0.55640054  1
  C  C313  1  0.44477272  0.94845537  0.71927989  1
  C  C314  1  0.42152037  0.92695795  0.55872924  1
  C  C315  1  0.45372090  0.95547884  0.61672288  1
  C  C316  1  0.49268289  0.99824714  0.75524108  1
  C  C317  1  0.66158891  0.22097156  0.15020045  1
  H  H318  1  0.62125340  0.21293994  0.20621077  1
  C  C319  1  0.64673874  0.14365441  0.10284612  1
  C  C320  1  0.66826640  0.20392580  0.05999750  1
  C  C321  1  0.62013434  0.17211964  0.05487327  1
  O  O322  1  0.72306686  0.13807407  0.15312181  1
  C  C323  1  0.56498477  0.21583041  0.45073637  1
  H  H324  1  0.62002000  0.20056615  0.46866875  1
  C  C325  1  0.70722485  0.24857948  0.16222134  1
  C  C326  1  0.58986320  0.11904153  0.09403898  1
  H  H327  1  0.60495768  0.09640757  0.12887555  1
  C  C328  1  0.54050205  0.17689893  0.00670554  1
  C  C329  1  0.50903778  0.12247545  0.04726383  1
  H  H330  1  0.51440892  0.22290509  0.16502497  1
  C  C331  1  0.50857243  0.20826903  0.37324705  1
  O  O332  1  0.52365778  0.18186164  0.31430302  1
  C  C333  1  0.53961767  0.23984300  0.51739535  1
  C  C334  1  0.50791446  0.02458765  0.82495948  1
  O  O335  1  0.70964548  0.19405890  0.88359342  1
  O  O336  1  0.52237099  0.05273705  0.79659798  1
  C  C337  1  0.71132779  0.21316494  0.97262211  1
  H  H338  1  0.51643169  0.03122175  0.63574768  1
  O  O339  1  0.67464109  0.23505421  0.60176885  1
  C  C340  1  0.60699392  0.24863658  0.59291378  1
  H  H341  1  0.52973311  0.20058835  0.96714748  1
  H  H342  1  0.68767611  0.23199480  0.77527734  1
  H  H343  1  0.71428957  0.19467816  0.72466100  1
  C  C344  1  0.72702441  0.21016108  0.79226940  1
  O  O345  1  0.50423870  0.02086850  0.91947889  1
  H  H346  1  0.66667510  0.46470910  0.30834581  1
  C  C347  1  0.63782487  0.40988483  0.33384766  1
  C  C348  1  0.60208000  0.47658640  0.32491363  1
  C  C349  1  0.68567193  0.38634958  0.38327554  1
  C  C350  1  0.58369976  0.42765633  0.40101040  1
  C  C351  1  0.53929714  0.45758169  0.37496436  1
  O  O352  1  0.64435532  0.41554353  0.23279965  1
  H  H353  1  0.57401723  0.46628722  0.10424416  1
  H  H354  1  0.59972518  0.34649618  0.31115490  1
  O  O355  1  0.60373248  0.30981936  0.22456929  1
  C  C356  1  0.58723028  0.31715496  0.13438079  1
  C  C357  1  0.62540640  0.30988512  0.03618354  1
  H  H358  1  0.67745154  0.29333138  0.03927530  1
  H  H359  1  0.69281226  0.37420051  0.15297802  1
  C  C360  1  0.53856687  0.33322316  0.28838862  1
  C  C361  1  0.70978914  0.39823943  0.17825900  1
  H  H362  1  0.70737616  0.41386021  0.10607651  1
  H  H363  1  0.53771097  0.40670157  0.05784301  1
  H  H364  1  0.73100694  0.37305548  0.33966564  1
  H  H365  1  0.53606558  0.25773048  0.08432484  1
  H  H366  1  0.70777624  0.26161582  0.23566101  1
  C  C367  1  0.67492670  0.37961855  0.48604485  1
  O  O368  1  0.73967232  0.48508253  0.45655538  1
  H  H369  1  0.50346970  0.26101154  0.22131360  1
  C  C370  1  0.51913985  0.34077528  0.11512093  1
  C  C371  1  0.51045328  0.46799990  0.07389525  1
  O  O372  1  0.71931302  0.34528349  0.61740964  1
  H  H373  1  0.65210056  0.36718331  0.99356540  1
  C  C374  1  0.68661433  0.42991133  0.82954612  1
  H  H375  1  0.59924520  0.38708725  0.62669992  1
  C  C376  1  0.64777644  0.39208522  0.96350443  1
  H  H377  1  0.70078714  0.45503601  0.99345037  1
  C  C378  1  0.58431566  0.41289694  0.99355052  1
  C  C379  1  0.56679902  0.41860030  0.50382816  1
  C  C380  1  0.51891577  0.34044061  0.93528616  1
  C  C381  1  0.59079572  0.32032869  0.94689456  1
  O  O382  1  0.59183053  0.27387216  0.64648962  1
  C  C383  1  0.70388074  0.48204460  0.56013495  1
  C  C384  1  0.70262760  0.40259169  0.88314562  1
  H  H385  1  0.51987861  0.42862665  0.55224314  1
  H  H386  1  0.73426883  0.43539182  0.76812391  1
  H  H387  1  0.68467266  0.45755113  0.57453644  1
  C  C388  1  0.60960179  0.39354719  0.54661933  1
  O  O389  1  0.61755926  0.32168012  0.77545377  1
  C  C390  1  0.72997137  0.35438201  0.52729234  1
  C  C391  1  0.61787511  0.45071412  0.84924877  1
  Cu  Cu392  1  0.65714025  0.31069407  0.63733265  1
  O  O393  1  0.59786263  0.47762842  0.80064879  1
  C  C394  1  0.64406836  0.31095052  0.85584159  1
  C  C395  1  0.56985169  0.44112484  0.93607431  1
  O  O396  1  0.71453805  0.29768512  0.85979482  1
  H  H397  1  0.50051742  0.43689659  0.79450875  1
  H  H398  1  0.65142459  0.49762747  0.58358129  1
  O  O399  1  0.52654902  0.57018745  0.23237109  1
  Cu  Cu400  1  0.52598434  0.59140001  0.11316466  1
  O  O401  1  0.64807854  0.58630853  0.10702398  1
  H  H402  1  0.62702937  0.52159916  0.25204675  1
  H  H403  1  0.67071625  0.71319346  0.12270794  1
  C  C404  1  0.67901080  0.55969814  0.07187656  1
  C  C405  1  0.58099848  0.50643887  0.29098981  1
  O  O406  1  0.70598974  0.68332815  0.49627401  1
  H  H407  1  0.71404979  0.50133560  0.00794425  1
  C  C408  1  0.67104271  0.70810386  0.03933367  1
  H  H409  1  0.60362587  0.70243429  0.01666362  1
  C  C410  1  0.72193876  0.53494072  0.13027377  1
  C  C411  1  0.71952502  0.66402743  0.41385854  1
  O  O412  1  0.70243647  0.63647204  0.41897455  1
  H  H413  1  0.51886475  0.51238701  0.48575075  1
  H  H414  1  0.71348207  0.68521633  0.02614758  1
  H  H415  1  0.73836666  0.56693354  0.26561083  1
  C  C416  1  0.74898481  0.54326878  0.22813708  1
  C  C417  1  0.73546708  0.50523032  0.08498276  1
  C  C418  1  0.53668211  0.50105880  0.84694387  1
  O  O419  1  0.53033088  0.64300980  0.69766716  1
  H  H420  1  0.56335026  0.50539981  0.92375903  1
  H  H421  1  0.60807531  0.57800259  0.74194980  1
  H  H422  1  0.53223154  0.52540688  0.80903374  1
  O  O423  1  0.70659763  0.72915461  0.96912922  1
  O  O424  1  0.52703355  0.61757578  0.99327003  1
  O  O425  1  0.58517612  0.68685389  0.63495060  1
  C  C426  1  0.50744601  0.59331920  0.83796057  1
  O  O427  1  0.74725454  0.61411212  0.72627728  1
  O  O428  1  0.53176722  0.54542240  0.59944842  1
  O  O429  1  0.65838708  0.55024013  0.98838957  1
  Cu  Cu430  1  0.63832355  0.62741850  0.72233314  1
  C  C431  1  0.55809247  0.61191674  0.90619636  1
  O  O432  1  0.62229323  0.62431270  0.87184559  1
  C  C433  1  0.54181243  0.57694876  0.75474168  1
  Cu  Cu434  1  0.70047365  0.67490882  0.63269157  1
  C  C435  1  0.52123857  0.67066547  0.66407873  1
  H  H436  1  0.50044148  0.94531568  0.41946911  1
  O  O437  1  0.55860272  0.90204568  0.51679142  1
  C  C438  1  0.60150148  0.92527664  0.57473567  1
  H  H439  1  0.58206832  0.92579616  0.66109082  1
  H  H440  1  0.60008890  0.94971907  0.54759639  1
  H  H441  1  0.67289207  0.91903751  0.57702357  1
  H  H442  1  0.84783916  0.15522350  0.18703401  1
  H  H443  1  0.96231363  0.23565577  0.09270090  1
  H  H444  1  0.79975808  0.16041709  0.05932498  1
  C  C445  1  0.78700955  0.16259584  0.14202503  1
  H  H446  1  0.77270447  0.18778241  0.16122521  1
  C  C447  1  0.75867515  0.24009984  0.98881423  1
  H  H448  1  0.93243952  0.24861748  0.56793953  1
  H  H449  1  0.79605077  0.21689363  0.78820588  1
  H  H450  1  0.99648077  0.23452232  0.96567726  1
  C  C451  1  0.82384761  0.46390913  0.31821245  1
  C  C452  1  0.91189810  0.41728749  0.34696290  1
  C  C453  1  0.87739362  0.43957119  0.28416903  1
  H  H454  1  0.89696084  0.43951500  0.20409186  1
  H  H455  1  0.94663139  0.31341185  0.30816000  1
  C  C456  1  0.79809177  0.46473911  0.42232345  1
  C  C457  1  0.77518874  0.48093677  0.13768082  1
  O  O458  1  0.79481016  0.45316706  0.09266171  1
  C  C459  1  0.88364412  0.41686708  0.44943970  1
  H  H460  1  0.98053065  0.32792257  0.13807555  1
  O  O461  1  0.83108450  0.29720601  0.16798889  1
  C  C462  1  0.78940627  0.48736973  0.24550016  1
  H  H463  1  0.95900556  0.40002412  0.32426205  1
  C  C464  1  0.82199220  0.28445173  0.08888859  1
  H  H465  1  0.77604973  0.39736952  0.20728103  1
  C  C466  1  0.83124558  0.44139166  0.48527412  1
  H  H467  1  0.87102589  0.39873337  0.04590089  1
  C  C468  1  0.95926012  0.48337427  0.07776089  1
  H  H469  1  0.93350806  0.48705262  0.15435004  1
  O  O470  1  0.99178023  0.37290687  0.05458402  1
  O  O471  1  0.94237979  0.36466523  0.47185546  1
  O  O472  1  0.78416601  0.34032459  0.47329208  1
  O  O473  1  0.86562665  0.29234278  0.00881072  1
  C  C474  1  0.93355256  0.39269732  0.00510387  1
  H  H475  1  0.97188820  0.41673196  0.01246041  1
  C  C476  1  0.75907262  0.25754623  0.08124538  1
  C  C477  1  0.98215500  0.25143279  0.62639315  1
  C  C478  1  0.98549517  0.27738750  0.69318784  1
  Cu  Cu479  1  0.88337665  0.36287099  0.70451497  1
  O  O480  1  0.91371705  0.32407827  0.75518621  1
  O  O481  1  0.79786707  0.36030307  0.92514371  1
  Cu  Cu482  1  0.89311507  0.32337369  0.50318850  1
  C  C483  1  0.91028789  0.38957380  0.50840547  1
  C  C484  1  0.77100017  0.45361135  0.98967727  1
  O  O485  1  0.92229203  0.49218962  0.72310000  1
  C  C486  1  0.91625404  0.30104720  0.69302991  1
  H  H487  1  0.75932432  0.48813116  0.61160450  1
  O  O488  1  0.81920664  0.38826613  0.78826639  1
  C  C489  1  0.94909808  0.48829095  0.89727389  1
  H  H490  1  0.78815626  0.43475768  0.93533981  1
  H  H491  1  0.79832055  0.47543459  0.95602217  1
  H  H492  1  0.80914636  0.43822148  0.56485914  1
  O  O493  1  0.86285305  0.30122976  0.62351118  1
  H  H494  1  0.91414699  0.38732021  0.92513240  1
  Cu  Cu495  1  0.82191307  0.31738539  0.89924466  1
  O  O496  1  0.89921910  0.39304017  0.60288497  1
  C  C497  1  0.77304187  0.38112933  0.86340027  1
  C  C498  1  0.92352208  0.49744249  0.99309468  1
  H  H499  1  0.79134275  0.25153125  0.92686363  1
  C  C500  1  0.81662446  0.70341056  0.15098568  1
  C  C501  1  0.80398472  0.67031255  0.14724136  1
  H  H502  1  0.88171676  0.59036683  0.28872201  1
  O  O503  1  0.91074134  0.54770612  0.41566954  1
  H  H504  1  0.78598023  0.52434469  0.36993758  1
  C  C505  1  0.76321040  0.67642682  0.32374827  1
  O  O506  1  0.82207677  0.65100705  0.06174558  1
  C  C507  1  0.84484973  0.72491880  0.06576852  1
  C  C508  1  0.80523432  0.72347964  0.23687956  1
  C  C509  1  0.78119800  0.51812765  0.28627998  1
  O  O510  1  0.94559887  0.71524513  0.41952062  1
  H  H511  1  0.87837481  0.66911841  0.38920150  1
  C  C512  1  0.90857689  0.68433540  0.44729537  1
  H  H513  1  0.91741982  0.64351749  0.21574280  1
  C  C514  1  0.93715856  0.60409977  0.31606950  1
  C  C515  1  0.95563820  0.63395839  0.27727539  1
  C  C516  1  0.77634287  0.65811524  0.23979337  1
  H  H517  1  0.76283503  0.63216628  0.24595128  1
  C  C518  1  0.78139172  0.70958289  0.32498886  1
  C  C519  1  0.93197429  0.73370135  0.07663814  1
  H  H520  1  0.77830155  0.72361109  0.39702850  1
  H  H521  1  0.97114922  0.72489026  0.13877287  1
  C  C522  1  0.96357823  0.56420640  0.45141761  1
  H  H523  1  0.83094749  0.74862082  0.23472441  1
  H  H524  1  0.96690118  0.67304730  0.47655416  1
  C  C525  1  0.99570584  0.71573322  0.33643846  1
  C  C526  1  0.98895528  0.59340362  0.39222006  1
  H  H527  1  0.98886832  0.55776047  0.13396017  1
  H  H528  1  0.87246256  0.51571783  0.00069691  1
  H  H529  1  0.92877666  0.67654825  0.01082687  1
  C  C530  1  0.81297819  0.63114356  0.71189772  1
  Cu  Cu531  1  0.96899900  0.52463322  0.62821811  1
  H  H532  1  0.88781732  0.64830604  0.92057568  1
  H  H533  1  0.83316050  0.58708652  0.87500575  1
  C  C534  1  0.88838598  0.62274127  0.77151786  1
  C  C535  1  0.88968260  0.60009689  0.85076244  1
  O  O536  1  0.87077201  0.72940916  0.70914066  1
  H  H537  1  0.86053133  0.68827384  0.50634565  1
  H  H538  1  0.95924302  0.66119571  0.69312557  1
  C  C539  1  0.96274058  0.64127359  0.75144462  1
  C  C540  1  0.87078511  0.66468861  0.98334555  1
  C  C541  1  0.78900038  0.73463303  0.98651098  1
  C  C542  1  0.95935471  0.59394817  0.90773138  1
  O  O543  1  0.94667542  0.57045144  0.99221263  1
  O  O544  1  0.80863115  0.65602620  0.65957768  1
  C  C545  1  0.92210130  0.74387837  0.66202903  1
  O  O546  1  0.83902717  0.51967919  0.82635808  1
  C  C547  1  0.90003115  0.50307901  0.81176792  1
  H  H548  1  0.83485048  0.68370687  0.94761180  1
  C  C549  1  0.96879715  0.75642873  0.01663273  1
  O  O550  1  0.98309905  0.81555737  0.52198592  1
  H  H551  1  0.79465179  0.76810633  0.86274440  1
  O  O552  1  0.90282717  0.76762416  0.60500161  1
  C  C553  1  0.83069555  0.75819916  0.92521561  1
  C  C554  1  0.95272792  0.79093895  0.86467422  1
  C  C555  1  0.91269218  0.76689672  0.93871867  1
  O  O556  1  0.91375577  0.80419786  0.79147223  1
  H  H557  1  0.95762976  0.86330488  0.64989651  1
  H  H558  1  0.98910560  0.92663400  0.92929082  1
  Cu  Cu559  1  0.94684470  0.80652261  0.65158818  1
