# generated using pymatgen
data_Zn2H16C21O10
_symmetry_space_group_name_H-M   'P 1'
_cell_length_a   15.63308987
_cell_length_b   22.41370811
_cell_length_c   14.59129310
_cell_angle_alpha   90.00000000
_cell_angle_beta   90.00000000
_cell_angle_gamma   90.00000000
_symmetry_Int_Tables_number   1
_chemical_formula_structural   Zn2H16C21O10
_chemical_formula_sum   'Zn16 H128 C168 O80'
_cell_volume   5112.72363210
_cell_formula_units_Z   8
loop_
 _symmetry_equiv_pos_site_id
 _symmetry_equiv_pos_as_xyz
  1  'x, y, z'
loop_
 _atom_site_type_symbol
 _atom_site_label
 _atom_site_symmetry_multiplicity
 _atom_site_fract_x
 _atom_site_fract_y
 _atom_site_fract_z
 _atom_site_occupancy
  C  C0  1  0.07235857  0.31221430  0.08049150  1
  O  O1  1  0.49539401  0.37730519  0.21780140  1
  O  O2  1  0.09210285  0.26293945  0.11123798  1
  H  H3  1  0.07935757  0.43097976  0.00444557  1
  C  C4  1  0.37737896  0.25669040  0.03329015  1
  C  C5  1  0.14826645  0.35081771  0.03942260  1
  H  H6  1  0.23222919  0.27163516  0.05392837  1
  H  H7  1  0.35959109  0.27345066  0.10643457  1
  C  C8  1  0.30906633  0.45943983  0.23906080  1
  H  H9  1  0.49244920  0.21278455  0.10280335  1
  C  C10  1  0.46351047  0.22327979  0.03647861  1
  C  C11  1  0.23026809  0.42582924  0.20010786  1
  O  O12  1  0.00017054  0.33497664  0.09537099  1
  H  H13  1  0.18575824  0.45943383  0.16903745  1
  H  H14  1  0.25263931  0.39241123  0.15088288  1
  C  C15  1  0.22568735  0.32041894  0.03600128  1
  O  O16  1  0.02411630  0.08491232  0.18729427  1
  O  O17  1  0.40681263  0.01175723  0.18003477  1
  C  C18  1  0.14189510  0.40921112  0.01030448  1
  H  H19  1  0.45440590  0.17756590  0.00661784  1
  H  H20  1  0.32537528  0.22593698  0.00805874  1
  C  C21  1  0.17769212  0.26892470  0.37458803  1
  C  C22  1  0.34640512  0.29359742  0.46728137  1
  C  C23  1  0.09915272  0.25170016  0.31792849  1
  H  H24  1  0.00682638  0.30340917  0.25121194  1
  H  H25  1  0.05151161  0.11476806  0.36273750  1
  H  H26  1  0.05619214  0.22136520  0.35734914  1
  H  H27  1  0.21082413  0.22864702  0.39961470  1
  C  C28  1  0.30831672  0.16151021  0.32348207  1
  H  H29  1  0.34302568  0.25547380  0.41807260  1
  H  H30  1  0.19723053  0.40046365  0.25338306  1
  H  H31  1  0.22507939  0.28943040  0.32566988  1
  O  O32  1  0.15967682  0.04197588  0.31284107  1
  O  O33  1  0.25229112  0.00972445  0.41498933  1
  C  C34  1  0.04711528  0.16144411  0.48897322  1
  C  C35  1  0.05712750  0.31695256  0.30031068  1
  O  O36  1  0.18705418  0.30889794  0.45465382  1
  C  C37  1  0.15609804  0.08737977  0.45985825  1
  H  H38  1  0.07891537  0.36479026  0.43299386  1
  C  C39  1  0.19559894  0.04439915  0.39192639  1
  C  C40  1  0.08314383  0.12008500  0.43105461  1
  H  H41  1  0.37004810  0.12486281  0.44454027  1
  H  H42  1  0.44146813  0.16259730  0.35796069  1
  H  H43  1  0.24507151  0.13984471  0.32855638  1
  C  C44  1  0.38556985  0.13241068  0.37248111  1
  Zn  Zn45  1  0.03059662  0.01905707  0.29661086  1
  H  H46  1  0.39623478  0.08573646  0.34894704  1
  C  C47  1  0.02622674  0.34153476  0.39297019  1
  H  H48  1  0.12032194  0.22766009  0.25412908  1
  H  H49  1  0.09614668  0.34910664  0.25901658  1
  H  H50  1  0.00894212  0.30307764  0.43567951  1
  C  C51  1  0.26597134  0.32036819  0.48848445  1
  H  H52  1  0.36933330  0.43522205  0.26023796  1
  O  O53  1  0.31091314  0.20290930  0.27458384  1
  O  O54  1  0.09287000  0.47900685  0.30263257  1
  C  C55  1  0.15823382  0.14023987  0.60742469  1
  C  C56  1  0.34704189  0.42374001  0.67935257  1
  C  C57  1  0.41358165  0.19022404  0.66223105  1
  O  O58  1  0.28160553  0.44612888  0.70196965  1
  C  C59  1  0.44629078  0.02369087  0.66554213  1
  H  H60  1  0.24819533  0.07053015  0.56410814  1
  C  C61  1  0.37064807  0.25141950  0.69530869  1
  C  C62  1  0.27636549  0.36355378  0.55617165  1
  H  H63  1  0.22484911  0.39179520  0.58074043  1
  C  C64  1  0.35417471  0.37683532  0.59926434  1
  C  C65  1  0.19117279  0.09822594  0.54675614  1
  C  C66  1  0.33998333  0.15098961  0.63506231  1
  O  O67  1  0.19037680  0.15941230  0.69009622  1
  H  H68  1  0.34193093  0.27728773  0.63941313  1
  H  H69  1  0.05209888  0.02818264  0.53895610  1
  H  H70  1  0.30780683  0.17715353  0.58001144  1
  H  H71  1  0.45532708  0.19773869  0.60160938  1
  H  H72  1  0.36165528  0.10682219  0.60242087  1
  H  H73  1  0.08893007  0.03495042  0.65202564  1
  C  C74  1  0.42532439  0.30628775  0.50323281  1
  H  H75  1  0.05087147  0.20212765  0.62060536  1
  C  C76  1  0.42888904  0.35026045  0.57297414  1
  O  O77  1  0.41717457  0.43678906  0.71636165  1
  H  H78  1  0.27079567  0.08989022  0.72357557  1
  C  C79  1  0.08488520  0.17044126  0.57524981  1
  C  C80  1  0.28039403  0.13974610  0.71190445  1
  H  H81  1  0.45015365  0.17037373  0.72001091  1
  C  C82  1  0.39546727  0.02713126  0.74265875  1
  H  H83  1  0.43669543  0.33932709  0.73163810  1
  H  H84  1  0.31380160  0.24181056  0.73873961  1
  C  C85  1  0.06991665  0.00200157  0.60094117  1
  H  H86  1  0.49141404  0.35602140  0.60260939  1
  C  C87  1  0.43501816  0.29119762  0.74938955  1
  C  C88  1  0.41455067  0.06001589  0.82228959  1
  C  C89  1  0.21832612  0.43501114  0.97540606  1
  H  H90  1  0.36789569  0.05838457  0.88004655  1
  C  C91  1  0.21478990  0.49946849  0.95269438  1
  H  H92  1  0.35315034  0.42889450  0.95010052  1
  O  O93  1  0.49569473  0.45283784  0.93434745  1
  H  H94  1  0.48656686  0.36758303  0.85137471  1
  H  H95  1  0.42509806  0.28700754  0.82667641  1
  C  C96  1  0.29697673  0.40524063  0.97148455  1
  Zn  Zn97  1  0.41555322  0.49941331  0.83074476  1
  H  H98  1  0.29870350  0.15949719  0.77738393  1
  O  O99  1  0.25846838  0.00206190  0.81516422  1
  C  C100  1  0.48711635  0.09578782  0.82771811  1
  O  O101  1  0.37605159  0.31689899  0.99050014  1
  C  C102  1  0.30017683  0.34572232  0.99897861  1
  C  C103  1  0.20798949  0.66836337  0.12987327  1
  H  H104  1  0.16425911  0.77325869  0.16082107  1
  C  C105  1  0.15386597  0.90650804  0.10138331  1
  C  C106  1  0.07020587  0.88350415  0.10606507  1
  O  O107  1  0.32381343  0.51137299  0.24683656  1
  H  H108  1  0.40903648  0.87418410  0.06307229  1
  C  C109  1  0.14563929  0.78598161  0.22992827  1
  Zn  Zn110  1  0.08506573  0.64034386  0.13850690  1
  H  H111  1  0.17583436  0.94091503  0.14926111  1
  C  C112  1  0.14332286  0.58281127  0.22689258  1
  C  C113  1  0.18590293  0.64632337  0.22455981  1
  C  C114  1  0.27935797  0.70091668  0.09055973  1
  O  O115  1  0.29095898  0.90686528  0.03726804  1
  C  C116  1  0.21542693  0.88844765  0.03669322  1
  O  O117  1  0.04266755  0.93198628  0.24950526  1
  H  H118  1  0.13248289  0.83491161  0.24131544  1
  C  C119  1  0.03680922  0.84551529  0.03944279  1
  C  C120  1  0.01222386  0.90013071  0.18532075  1
  Zn  Zn121  1  0.31946295  0.66112273  0.22427178  1
  C  C122  1  0.47957600  0.86958637  0.03590212  1
  O  O123  1  0.31544412  0.72043691  0.02687611  1
  H  H124  1  0.48194255  0.96728673  0.05589448  1
  C  C125  1  0.05134768  0.57046838  0.23967095  1
  C  C126  1  0.46849586  0.77968480  0.24999921  1
  C  C127  1  0.43820560  0.90699777  0.24224850  1
  C  C128  1  0.39861907  0.96386946  0.21024930  1
  O  O129  1  0.44476471  0.67336440  0.28721019  1
  O  O130  1  0.45252382  0.89891625  0.49586848  1
  H  H131  1  0.33382259  0.77041515  0.30669359  1
  Zn  Zn132  1  0.29543763  0.92915213  0.28722198  1
  H  H133  1  0.12084921  0.76226307  0.36916840  1
  C  C134  1  0.38583985  0.79968609  0.27722566  1
  O  O135  1  0.15377338  0.68678828  0.31162246  1
  C  C136  1  0.14314286  0.74567884  0.29832347  1
  C  C137  1  0.37639966  0.86022636  0.26744758  1
  C  C138  1  0.49171156  0.71331348  0.25552805  1
  H  H139  1  0.18704019  0.54595186  0.25213139  1
  C  C140  1  0.03095884  0.51149114  0.28744493  1
  C  C141  1  0.33897714  0.83095094  0.51647647  1
  H  H142  1  0.07820605  0.84448604  0.65272503  1
  H  H143  1  0.16092307  0.93360489  0.65121306  1
  C  C144  1  0.03392110  0.81945171  0.70399714  1
  H  H145  1  0.10435987  0.77841502  0.55136150  1
  O  O146  1  0.11684133  0.90220550  0.53371273  1
  C  C147  1  0.13915095  0.95125128  0.58286647  1
  C  C148  1  0.27058043  0.87327454  0.51039447  1
  H  H149  1  0.29089200  0.91989786  0.50090676  1
  H  H150  1  0.19017907  0.98162097  0.55344310  1
  C  C151  1  0.18662995  0.85556465  0.52551491  1
  O  O152  1  0.29570148  0.95854301  0.67990380  1
  C  C153  1  0.23621759  0.75380815  0.53431290  1
  C  C154  1  0.16823415  0.79403874  0.53737072  1
  H  H155  1  0.43036461  0.99451939  0.60587721  1
  H  H156  1  0.05288926  0.76843900  0.69569895  1
  H  H157  1  0.02713110  0.67549522  0.52221563  1
  C  C158  1  0.31266943  0.99207275  0.74054475  1
  O  O159  1  0.30592653  0.65224471  0.54026630  1
  H  H160  1  0.37255513  0.73568048  0.53561247  1
  C  C161  1  0.43128450  0.84684099  0.51082594  1
  O  O162  1  0.48950557  0.80553101  0.51579736  1
  C  C163  1  0.32402889  0.77055331  0.52764022  1
  C  C164  1  0.22699459  0.68735132  0.54144145  1
  H  H165  1  0.28168337  0.61362125  0.54469294  1
  O  O166  1  0.16033208  0.66192645  0.54464266  1
  H  H167  1  0.10531371  0.86711583  0.80460435  1
  Zn  Zn168  1  0.36250447  0.85759491  0.90911043  1
  O  O169  1  0.22470780  0.80284580  0.81199705  1
  H  H170  1  0.29390540  0.56099685  0.94893742  1
  H  H171  1  0.10494315  0.76039951  0.85778709  1
  C  C172  1  0.04488670  0.84155617  0.80548395  1
  C  C173  1  0.02214389  0.96406498  0.85948329  1
  H  H174  1  0.48198025  0.77450567  0.98834235  1
  C  C175  1  0.23190761  0.82924880  0.88357614  1
  H  H176  1  0.48970154  0.94107751  0.93824048  1
  C  C177  1  0.05928941  0.79292385  0.88324528  1
  C  C178  1  0.09235844  0.83234265  0.96278377  1
  H  H179  1  0.48860858  0.70702616  0.91280530  1
  C  C180  1  0.18056543  0.84933821  0.95992487  1
  O  O181  1  0.30894314  0.52316929  0.93321469  1
  O  O182  1  0.45355536  0.60407639  0.88340637  1
  O  O183  1  0.15619825  0.53217825  0.94821899  1
  C  C184  1  0.48730762  0.82275433  0.96011955  1
  O  O185  1  0.08520043  0.96123783  0.81617675  1
  H  H186  1  0.20763377  0.97936576  0.80044364  1
  H  H187  1  0.82739574  0.01681471  0.11265028  1
  H  H188  1  0.74544799  0.13655364  0.07424171  1
  C  C189  1  0.56494910  0.35324845  0.22281417  1
  H  H190  1  0.87575538  0.20251643  0.19696893  1
  O  O191  1  0.83023136  0.45197790  0.12595692  1
  C  C192  1  0.84133486  0.16046970  0.20548170  1
  O  O193  1  0.96830003  0.09701805  0.04809551  1
  H  H194  1  0.56007865  0.29703599  0.02207445  1
  C  C195  1  0.85255125  0.47234166  0.05158370  1
  C  C196  1  0.96323901  0.09703035  0.13288705  1
  O  O197  1  0.79097592  0.25830867  0.06083320  1
  O  O198  1  0.56685889  0.29758246  0.20049955  1
  O  O199  1  0.53475205  0.14426829  0.22548777  1
  O  O200  1  0.69225831  0.02573887  0.01799132  1
  C  C201  1  0.87849321  0.10430307  0.17521223  1
  C  C202  1  0.81670066  0.05421059  0.15985752  1
  C  C203  1  0.68600135  0.10468897  0.23986183  1
  Zn  Zn204  1  0.60505458  0.02032475  0.21417149  1
  C  C205  1  0.83141369  0.23677833  0.00008885  1
  H  H206  1  0.61767967  0.18285033  0.04937742  1
  C  C207  1  0.59673303  0.11353421  0.21857799  1
  C  C208  1  0.76265837  0.12917064  0.00078269  1
  H  H209  1  0.59422363  0.47290540  0.22953148  1
  C  C210  1  0.65172136  0.38381293  0.24633248  1
  C  C211  1  0.74576425  0.16680950  0.24566922  1
  C  C212  1  0.72827532  0.05320961  0.20212550  1
  O  O213  1  0.92100094  0.18074060  0.40328183  1
  C  C214  1  0.72737688  0.35177451  0.26301360  1
  O  O215  1  0.94627097  0.01452320  0.42356848  1
  C  C216  1  0.72281927  0.47347451  0.29044560  1
  H  H217  1  0.90295588  0.37400714  0.44681441  1
  H  H218  1  0.94374937  0.41945177  0.35230215  1
  C  C219  1  0.96158729  0.19487497  0.46854376  1
  Zn  Zn220  1  0.81914026  0.09151323  0.29871350  1
  O  O221  1  0.71649861  0.20633980  0.29268828  1
  C  C222  1  0.79432523  0.44127646  0.31864260  1
  C  C223  1  0.93506496  0.37116588  0.37704825  1
  Zn  Zn224  1  0.58260486  0.23009184  0.29224472  1
  H  H225  1  0.84934034  0.46365411  0.34986157  1
  O  O226  1  0.87514935  0.34982440  0.31102219  1
  C  C227  1  0.79985881  0.38118872  0.29603111  1
  O  O228  1  0.81353381  0.03181974  0.45891195  1
  H  H229  1  0.73236425  0.30309740  0.25346866  1
  C  C230  1  0.50834472  0.27321692  0.47148030  1
  O  O231  1  0.50517670  0.23108714  0.41349116  1
  C  C232  1  0.65100404  0.44604988  0.25323066  1
  Zn  Zn233  1  0.84163605  0.21985002  0.63521698  1
  O  O234  1  0.83219032  0.05793835  0.69402538  1
  H  H235  1  0.69206024  0.26982695  0.72608179  1
  C  C236  1  0.53901248  0.09523886  0.74763758  1
  Zn  Zn237  1  0.75617131  0.06710188  0.57756217  1
  H  H238  1  0.81441056  0.16834245  0.50803551  1
  C  C239  1  0.51823776  0.06134892  0.67313051  1
  O  O240  1  0.93266719  0.23315258  0.52629296  1
  O  O241  1  0.90111094  0.14294523  0.70615228  1
  C  C242  1  0.56424008  0.05975897  0.57877014  1
  O  O243  1  0.62816338  0.09647390  0.57021913  1
  O  O244  1  0.78495712  0.15728553  0.56006416  1
  O  O245  1  0.53535695  0.03169503  0.51606468  1
  O  O246  1  0.57262370  0.28271309  0.51674612  1
  C  C247  1  0.85359219  0.10317854  0.73925942  1
  H  H248  1  0.59675951  0.12266491  0.74233515  1
  O  O249  1  0.83056023  0.27900076  0.74807271  1
  O  O250  1  0.52581996  0.26982826  0.74402876  1
  C  C251  1  0.58244929  0.30872380  0.78400802  1
  O  O252  1  0.90148997  0.44208010  0.99962599  1
  H  H253  1  0.52315846  0.26464989  0.91475956  1
  C  C254  1  0.80887278  0.17429158  0.95698097  1
  H  H255  1  0.88253059  0.20056903  0.83831916  1
  H  H256  1  0.75598506  0.02124597  0.83365881  1
  C  C257  1  0.81728571  0.11039551  0.83210360  1
  H  H258  1  0.56016956  0.19896995  0.84925250  1
  O  O259  1  0.87712439  0.35316340  0.83366640  1
  H  H260  1  0.64142544  0.00236026  0.90259057  1
  C  C261  1  0.57664146  0.44461078  0.93739506  1
  C  C262  1  0.67056444  0.30246151  0.77581509  1
  C  C263  1  0.74383235  0.07418513  0.96199246  1
  C  C264  1  0.61329655  0.20691843  0.98196684  1
  H  H265  1  0.75022167  0.41652199  0.91435027  1
  C  C266  1  0.61401492  0.39599778  0.87989976  1
  H  H267  1  0.67551045  0.22641442  0.96251766  1
  C  C268  1  0.72851345  0.34267292  0.81715087  1
  C  C269  1  0.84199348  0.16590495  0.87151010  1
  Zn  Zn270  1  0.97213916  0.03435384  0.94227385  1
  C  C271  1  0.76817405  0.06552193  0.87251161  1
  C  C272  1  0.81899327  0.32525827  0.79573811  1
  H  H273  1  0.63823392  0.13666787  0.87397636  1
  O  O274  1  0.50512890  0.12931838  0.90237922  1
  C  C275  1  0.70244516  0.38973074  0.87229786  1
  C  C276  1  0.58320986  0.16497178  0.90134111  1
  C  C277  1  0.55556146  0.35617335  0.83958174  1
  O  O278  1  0.62686033  0.47514639  0.98050750  1
  O  O279  1  0.89637978  0.26481854  0.96800058  1
  Zn  Zn280  1  0.90969110  0.35205004  0.98727958  1
  C  C281  1  0.54130599  0.25340464  0.98632358  1
  C  C282  1  0.96365249  0.66715041  0.16873299  1
  H  H283  1  0.58247217  0.52498763  0.04244840  1
  H  H284  1  0.73510566  0.55041589  0.13307755  1
  C  C285  1  0.75373637  0.56306184  0.05897123  1
  C  C286  1  0.67636556  0.66660633  0.04497231  1
  O  O287  1  0.92793425  0.71014823  0.14399434  1
  Zn  Zn288  1  0.63499820  0.62543032  0.16885242  1
  C  C289  1  0.52958257  0.88208524  0.23474618  1
  O  O290  1  0.64888803  0.71400200  0.02197529  1
  H  H291  1  0.59908674  0.80196228  0.22262682  1
  O  O292  1  0.58732503  0.91749092  0.22330152  1
  H  H293  1  0.62911537  0.93205953  0.08926518  1
  O  O294  1  0.93768926  0.88846873  0.17822469  1
  H  H295  1  0.97012630  0.82625686  0.04357381  1
  C  C296  1  0.53456985  0.81900952  0.23283386  1
  H  H297  1  0.51696317  0.85495063  0.09532266  1
  O  O298  1  0.54954480  0.55923190  0.08141311  1
  C  C299  1  0.81158945  0.52936276  0.00845607  1
  C  C300  1  0.97454166  0.60671918  0.21557024  1
  H  H301  1  0.86685245  0.75217717  0.02519403  1
  C  C302  1  0.73357882  0.61746719  0.01493816  1
  H  H303  1  0.91490086  0.58846668  0.23955837  1
  C  C304  1  0.61337308  0.93710533  0.01361468  1
  H  H305  1  0.52300927  0.58281207  0.03088936  1
  O  O306  1  0.77262035  0.82459735  0.01313374  1
  O  O307  1  0.56461101  0.69969279  0.23691266  1
  C  C308  1  0.51549662  0.93193413  0.00689090  1
  C  C309  1  0.90716462  0.66429506  0.44349753  1
  C  C310  1  0.69419518  0.81729157  0.34724462  1
  Zn  Zn311  1  0.83659008  0.85876751  0.31652181  1
  C  C312  1  0.71678591  0.54252654  0.30620092  1
  C  C313  1  0.92221762  0.88610009  0.42924469  1
  O  O314  1  0.96487165  0.78296753  0.38580178  1
  C  C315  1  0.75070933  0.83996454  0.42883140  1
  O  O316  1  0.69611959  0.77613244  0.29673720  1
  O  O317  1  0.77794606  0.56983578  0.33158313  1
  Zn  Zn318  1  0.61129431  0.80702485  0.45247553  1
  H  H319  1  0.88600447  0.72401011  0.32285967  1
  C  C320  1  0.85238609  0.93154357  0.41802955  1
  C  C321  1  0.76609803  0.90834978  0.42753603  1
  H  H322  1  0.71431749  0.93862814  0.44799102  1
  H  H323  1  0.92344350  0.61664089  0.42662564  1
  C  C324  1  0.82247203  0.79962618  0.44892830  1
  H  H325  1  0.81358960  0.75889374  0.48920828  1
  C  C326  1  0.93739578  0.71252790  0.37447385  1
  C  C327  1  0.91111934  0.81891121  0.42046949  1
  O  O328  1  0.64727173  0.56685855  0.28246893  1
  H  H329  1  0.83459301  0.66765011  0.45196303  1
  H  H330  1  0.98901991  0.90177456  0.43474572  1
  O  O331  1  0.95576644  0.50021056  0.30272164  1
  H  H332  1  0.99673488  0.70128560  0.33958292  1
  C  C333  1  0.87236819  0.99517170  0.43323447  1
  C  C334  1  0.61005598  0.72865620  0.68453209  1
  C  C335  1  0.66435596  0.72324166  0.59689392  1
  O  O336  1  0.69902923  0.77047653  0.57084674  1
  O  O337  1  0.95743232  0.81679758  0.65792049  1
  H  H338  1  0.88864857  0.73631340  0.67332617  1
  H  H339  1  0.81551083  0.88689500  0.61084505  1
  H  H340  1  0.88418625  0.60847917  0.59063950  1
  H  H341  1  0.98240432  0.92799971  0.58589115  1
  C  C342  1  0.57741880  0.67347190  0.70913947  1
  C  C343  1  0.81507453  0.87291392  0.68377517  1
  H  H344  1  0.94607847  0.73243100  0.54798365  1
  C  C345  1  0.92015265  0.64869429  0.61450062  1
  H  H346  1  0.61760204  0.82149549  0.71509051  1
  C  C347  1  0.85591674  0.68990535  0.66601107  1
  O  O348  1  0.70259114  0.96230579  0.61308747  1
  H  H349  1  0.58070763  0.63474367  0.66627932  1
  O  O350  1  0.67222756  0.67597445  0.55693449  1
  H  H351  1  0.79996632  0.70129218  0.62006844  1
  C  C352  1  0.98692467  0.96659150  0.63044529  1
  C  C353  1  0.69208391  0.94365288  0.70914365  1
  C  C354  1  0.95757051  0.68571311  0.53250183  1
  C  C355  1  0.59343576  0.77828643  0.74037093  1
  C  C356  1  0.87726716  0.83363862  0.70974852  1
  H  H357  1  0.65877914  0.99605345  0.61235777  1
  C  C358  1  0.74752601  0.89506542  0.74224878  1
  H  H359  1  0.92886389  0.99460723  0.62431914  1
  H  H360  1  0.97164334  0.63371245  0.66325990  1
  H  H361  1  0.98646988  0.95232555  0.70333036  1
  O  O362  1  0.51497817  0.56047877  0.77044693  1
  O  O363  1  0.53393108  0.82749492  0.88627628  1
  C  C364  1  0.51640788  0.71898460  0.84832374  1
  C  C365  1  0.76305717  0.62605744  0.92537040  1
  H  H366  1  0.83696022  0.69410129  0.81953871  1
  H  H367  1  0.73580096  0.66706347  0.89627791  1
  C  C368  1  0.81084507  0.80498972  0.94947377  1
  C  C369  1  0.54529715  0.77328244  0.82308827  1
  C  C370  1  0.92399060  0.96205899  0.87318417  1
  C  C371  1  0.86655664  0.80993150  0.79663634  1
  C  C372  1  0.82318263  0.59226615  0.87533260  1
  O  O373  1  0.87613993  0.75842583  0.96296718  1
  H  H374  1  0.88655089  0.95319991  0.81373050  1
  H  H375  1  0.90811967  0.77305845  0.82365377  1
  C  C376  1  0.73933039  0.87194640  0.83086590  1
  C  C377  1  0.50394846  0.60701557  0.82021636  1
  C  C378  1  0.80077415  0.82970637  0.85554022  1
  C  C379  1  0.84694877  0.54052809  0.92284110  1
  O  O380  1  0.85790207  0.60875662  0.79317947  1
  H  H381  1  0.90171275  0.93152660  0.92964402  1
  H  H382  1  0.68604107  0.88769346  0.87103226  1
  H  H383  1  0.89455565  0.50976606  0.89642239  1
  H  H384  1  0.63828741  0.89838938  0.97719636  1
  C  C385  1  0.65000436  0.98917558  0.97710704  1
  H  H386  1  0.99716025  0.87409455  0.82654207  1
  C  C387  1  0.52862780  0.66810016  0.79038723  1
  C  C388  1  0.82541496  0.66242672  0.75871365  1
  H  H389  1  0.99595749  0.76834433  0.89685650  1
  O  O390  1  0.64421624  0.96929955  0.75720797  1
  H  H391  1  0.75424799  0.65893898  0.75629582  1
