# generated using pymatgen
data_ZnH6(C5N3)2
_symmetry_space_group_name_H-M   'P 1'
_cell_length_a   15.90469572
_cell_length_b   7.18913129
_cell_length_c   17.51084570
_cell_angle_alpha   90.00000000
_cell_angle_beta   90.00000000
_cell_angle_gamma   90.00000000
_symmetry_Int_Tables_number   1
_chemical_formula_structural   ZnH6(C5N3)2
_chemical_formula_sum   'Zn8 H48 C80 N48'
_cell_volume   2002.20665706
_cell_formula_units_Z   8
loop_
 _symmetry_equiv_pos_site_id
 _symmetry_equiv_pos_as_xyz
  1  'x, y, z'
loop_
 _atom_site_type_symbol
 _atom_site_label
 _atom_site_symmetry_multiplicity
 _atom_site_fract_x
 _atom_site_fract_y
 _atom_site_fract_z
 _atom_site_occupancy
  N  N0  1  0.06324697  0.12497113  0.08673311  1
  C  C1  1  0.08620677  0.07644454  0.22436838  1
  N  N2  1  0.19466207  0.05385747  0.11535501  1
  C  C3  1  0.20181124  0.10097167  0.04117897  1
  H  H4  1  0.46217858  0.23002045  0.13286956  1
  C  C5  1  0.11433868  0.07850902  0.14155352  1
  H  H6  1  0.19244545  0.40378987  0.09581080  1
  C  C7  1  0.36479151  0.04661447  0.03076301  1
  C  C8  1  0.15893315  0.46559102  0.21527510  1
  C  C9  1  0.14819201  0.47441733  0.13647824  1
  H  H10  1  0.21218172  0.38843599  0.23487218  1
  C  C11  1  0.28248129  0.10550253  0.00084582  1
  N  N12  1  0.13022609  0.14756438  0.00891774  1
  H  H13  1  0.48370808  0.12115085  0.40256681  1
  N  N14  1  0.36383059  0.15815484  0.38933985  1
  C  C15  1  0.42549030  0.12662609  0.43799859  1
  H  H16  1  0.23488747  0.18702926  0.37884152  1
  C  C17  1  0.28741896  0.15755845  0.42012145  1
  N  N18  1  0.07601548  0.09287003  0.38515691  1
  C  C19  1  0.01690771  0.17537733  0.34078558  1
  H  H20  1  0.48198138  0.21533451  0.27403523  1
  C  C21  1  0.27559007  0.12200400  0.49713925  1
  C  C22  1  0.01517675  0.15630659  0.26052681  1
  C  C23  1  0.15979747  0.38764763  0.64519453  1
  C  C24  1  0.33958460  0.08477504  0.55200267  1
  C  C25  1  0.16210901  0.39191657  0.72899954  1
  H  H26  1  0.21463638  0.39942649  0.60674259  1
  N  N27  1  0.08278982  0.40859983  0.62099317  1
  N  N28  1  0.02120442  0.41243609  0.70402539  1
  N  N29  1  0.31949134  0.39602887  0.73343127  1
  H  H30  1  0.47796784  0.06791171  0.54915301  1
  H  H31  1  0.21353483  0.11419165  0.51640887  1
  C  C32  1  0.42170994  0.09956147  0.51835658  1
  C  C33  1  0.32609514  0.02054569  0.63365654  1
  Zn  Zn34  1  0.40353474  0.19728604  0.78045668  1
  C  C35  1  0.24448951  0.40965028  0.76611435  1
  C  C36  1  0.29146059  0.14146667  0.91812714  1
  N  N37  1  0.36784803  0.13013552  0.89330496  1
  H  H38  1  0.06073162  0.38284468  0.82132318  1
  H  H39  1  0.24212544  0.17992270  0.87762014  1
  C  C40  1  0.07799273  0.38882875  0.75869394  1
  N  N41  1  0.41927311  0.05644894  0.97651749  1
  N  N42  1  0.38483710  0.48903114  0.82291236  1
  N  N43  1  0.24366108  0.48569841  0.83708314  1
  H  H44  1  0.22464480  0.75000524  0.11720401  1
  N  N45  1  0.34592615  0.68097291  0.10967987  1
  N  N46  1  0.08682495  0.57642604  0.10604400  1
  C  C47  1  0.41190752  0.63317718  0.06616514  1
  C  C48  1  0.27243632  0.70000306  0.07324324  1
  H  H49  1  0.46554474  0.63679682  0.10476866  1
  H  H50  1  0.48094151  0.78982033  0.21549519  1
  H  H51  1  0.37683022  0.98419456  0.08762514  1
  C  C52  1  0.03425627  0.65280630  0.15406720  1
  C  C53  1  0.03454110  0.64395696  0.23359677  1
  C  C54  1  0.20822708  0.59157869  0.45475600  1
  H  H55  1  0.46923241  0.76517261  0.36721961  1
  N  N56  1  0.07195355  0.62547097  0.40673481  1
  N  N57  1  0.20280579  0.52888801  0.38195334  1
  C  C58  1  0.10255554  0.54783760  0.26866452  1
  H  H59  1  0.17534309  0.93739288  0.40024353  1
  C  C60  1  0.36895530  0.53884358  0.47441725  1
  C  C61  1  0.12447867  0.55371234  0.35367508  1
  N  N62  1  0.13816775  0.65875885  0.48348426  1
  H  H63  1  0.39152623  0.50619413  0.41485499  1
  C  C64  1  0.14823949  0.99299056  0.27310640  1
  C  C65  1  0.13406582  0.98613276  0.35078697  1
  H  H66  1  0.20805349  0.92512829  0.25210538  1
  N  N67  1  0.36200290  0.64666631  0.60613608  1
  N  N68  1  0.42349155  0.56727259  0.52979624  1
  H  H69  1  0.22585212  0.68810719  0.61437491  1
  C  C70  1  0.28648601  0.65550312  0.58070766  1
  Zn  Zn71  1  0.39249054  0.65493152  0.71729254  1
  C  C72  1  0.08107843  0.85744436  0.73726194  1
  H  H73  1  0.05988719  0.82506302  0.67863524  1
  C  C74  1  0.24417342  0.91366818  0.72887619  1
  N  N75  1  0.24689971  0.97736863  0.65365004  1
  C  C76  1  0.28818333  0.59355404  0.50097316  1
  Zn  Zn77  1  0.03860285  0.50111500  0.51346160  1
  N  N78  1  0.38422618  0.99302762  0.68673218  1
  C  C79  1  0.32721271  0.58224161  0.94750180  1
  N  N80  1  0.02763862  0.87634249  0.79309591  1
  H  H81  1  0.21304642  0.89482480  0.89800698  1
  Zn  Zn82  1  0.04273569  0.97863364  0.98420523  1
  N  N83  1  0.08888073  0.90308828  0.87602843  1
  C  C84  1  0.16334859  0.88527582  0.85300324  1
  H  H85  1  0.45966163  0.53406666  0.96336988  1
  C  C86  1  0.16720960  0.87496610  0.76933828  1
  C  C87  1  0.40385220  0.58441088  0.98898631  1
  N  N88  1  0.32065014  0.89108747  0.75758581  1
  H  H89  1  0.19698977  0.62335131  0.97622010  1
  C  C90  1  0.32043356  0.52115921  0.86682733  1
  C  C91  1  0.26098356  0.64220272  0.99752926  1
  C  C92  1  0.91664863  0.36054788  0.07232637  1
  H  H93  1  0.72120164  0.29719713  0.10983733  1
  C  C94  1  0.77710652  0.32629771  0.07239760  1
  N  N95  1  0.84880726  0.31608159  0.11408488  1
  N  N96  1  0.55415820  0.42125833  0.11165199  1
  H  H97  1  0.96791856  0.34728188  0.11398506  1
  H  H98  1  0.96540792  0.22076674  0.22410737  1
  C  C99  1  0.51302390  0.31703035  0.16023048  1
  H  H100  1  0.88724071  0.01532633  0.07576476  1
  C  C101  1  0.52634622  0.30063608  0.23927380  1
  C  C102  1  0.70755272  0.38135687  0.45387427  1
  H  H103  1  0.96678394  0.24039270  0.37809888  1
  C  C104  1  0.86919639  0.44725478  0.46980817  1
  N  N105  1  0.70039355  0.41274626  0.37721979  1
  H  H106  1  0.69194298  0.03502685  0.39637308  1
  C  C107  1  0.61875979  0.39486350  0.35569784  1
  N  N108  1  0.56878034  0.35031960  0.41037644  1
  C  C109  1  0.58983567  0.41038844  0.27314327  1
  H  H110  1  0.88356264  0.48410560  0.40941653  1
  C  C111  1  0.66551949  0.00445064  0.27431084  1
  C  C112  1  0.78816556  0.38149375  0.49396097  1
  N  N113  1  0.63466704  0.34104537  0.48580165  1
  H  H114  1  0.72350526  0.07379158  0.25584191  1
  C  C115  1  0.74945939  0.11011321  0.73776227  1
  H  H116  1  0.74551316  0.30243703  0.61893636  1
  N  N117  1  0.92281906  0.44356357  0.52517820  1
  C  C118  1  0.79514549  0.33206298  0.57572057  1
  N  N119  1  0.86765226  0.37113725  0.59840190  1
  C  C120  1  0.58977627  0.16922564  0.74905011  1
  Zn  Zn121  1  0.89866420  0.37574506  0.71512960  1
  H  H122  1  0.57172097  0.20073054  0.69142370  1
  N  N123  1  0.74197409  0.03281182  0.66704388  1
  N  N124  1  0.88113323  0.01708265  0.69037628  1
  H  H125  1  0.95968568  0.01590216  0.55870542  1
  C  C126  1  0.67413885  0.15096161  0.78261834  1
  N  N127  1  0.59380098  0.08860198  0.88377927  1
  H  H128  1  0.72433918  0.09987815  0.90590870  1
  C  C129  1  0.67122252  0.12311673  0.86515027  1
  N  N130  1  0.53320950  0.14233386  0.80172709  1
  C  C131  1  0.84378771  0.41373786  0.95164611  1
  Zn  Zn132  1  0.54181170  0.00752659  0.98312041  1
  H  H133  1  0.98143420  0.43365133  0.96687124  1
  C  C134  1  0.91979656  0.40227182  0.99440105  1
  H  H135  1  0.71178410  0.42037703  0.97128795  1
  C  C136  1  0.77158470  0.38005838  0.99757246  1
  N  N137  1  0.75001067  0.49012503  0.84253535  1
  C  C138  1  0.83018049  0.47298325  0.87066156  1
  N  N139  1  0.82855206  0.13737620  0.76191806  1
  C  C140  1  0.61889704  0.92284833  0.13951844  1
  C  C141  1  0.63650998  0.51814675  0.21945691  1
  H  H142  1  0.99384652  0.73509256  0.11366051  1
  N  N143  1  0.56561459  0.87430082  0.08843735  1
  C  C144  1  0.70505828  0.88086319  0.04193288  1
  N  N145  1  0.70052068  0.93933828  0.11439480  1
  H  H146  1  0.64296304  0.61132482  0.09527203  1
  C  C147  1  0.60253509  0.93858003  0.22449024  1
  C  C148  1  0.86504368  0.96800830  0.01936262  1
  C  C149  1  0.61662691  0.51536816  0.14118288  1
  H  H150  1  0.68082472  0.61881081  0.24225719  1
  N  N151  1  0.63248896  0.84139896  0.01033167  1
  H  H152  1  0.98493364  0.90912527  0.41966839  1
  H  H153  1  0.74191476  0.74144137  0.39531566  1
  N  N154  1  0.86057707  0.82757610  0.40387018  1
  C  C155  1  0.92353635  0.89212587  0.44877174  1
  C  C156  1  0.78631706  0.79668248  0.43683251  1
  N  N157  1  0.57541372  0.91806274  0.38050459  1
  H  H158  1  0.99094293  0.72984628  0.27029274  1
  C  C159  1  0.64627435  0.98633427  0.35199139  1
  C  C160  1  0.51993231  0.83226720  0.33386523  1
  C  C161  1  0.52919731  0.84691835  0.25499161  1
  Zn  Zn162  1  0.54555985  0.51448779  0.52420541  1
  N  N163  1  0.59029076  0.58554163  0.62454320  1
  C  C164  1  0.66724045  0.59742039  0.64897176  1
  C  C165  1  0.82818847  0.92579578  0.56126674  1
  H  H166  1  0.72036060  0.58625044  0.60829726  1
  N  N167  1  0.52888000  0.61422152  0.70533308  1
  C  C168  1  0.66666866  0.59504273  0.73187414  1
  N  N169  1  0.82152727  0.60316914  0.74070549  1
  C  C170  1  0.90757577  0.94469773  0.52537440  1
  H  H171  1  0.69949257  0.84182315  0.52916345  1
  C  C172  1  0.81787376  0.99016578  0.64169171  1
  C  C173  1  0.76623555  0.84504773  0.51075869  1
  N  N174  1  0.91906037  0.94592646  0.96517446  1
  C  C175  1  0.74497945  0.57206286  0.77285577  1
  C  C176  1  0.79001946  0.84249243  0.91568533  1
  N  N177  1  0.86346938  0.86974481  0.88989635  1
  H  H178  1  0.56368465  0.61772505  0.82373568  1
  Zn  Zn179  1  0.90081561  0.81875752  0.78341842  1
  H  H180  1  0.73838192  0.79292811  0.88023940  1
  C  C181  1  0.57855244  0.60892068  0.76188286  1
  C  C182  1  0.78357466  0.89990863  0.99414161  1
  N  N183  1  0.89401176  0.51982542  0.82654596  1
