# generated using pymatgen
data_Zn5H16C26(N9O4)2
_symmetry_space_group_name_H-M   'P 1'
_cell_length_a   20.54641306
_cell_length_b   7.57680071
_cell_length_c   12.41915837
_cell_angle_alpha   90.00000000
_cell_angle_beta   90.00000000
_cell_angle_gamma   90.00000000
_symmetry_Int_Tables_number   1
_chemical_formula_structural   Zn5H16C26(N9O4)2
_chemical_formula_sum   'Zn10 H32 C52 N36 O16'
_cell_volume   1933.36585508
_cell_formula_units_Z   2
loop_
 _symmetry_equiv_pos_site_id
 _symmetry_equiv_pos_as_xyz
  1  'x, y, z'
loop_
 _atom_site_type_symbol
 _atom_site_label
 _atom_site_symmetry_multiplicity
 _atom_site_fract_x
 _atom_site_fract_y
 _atom_site_fract_z
 _atom_site_occupancy
  N  N0  1  0.06999480  0.43079098  0.38082799  1
  O  O1  1  0.10189655  0.30798197  0.09073619  1
  N  N2  1  0.17733677  0.29419448  0.28972495  1
  C  C3  1  0.12315778  0.36794514  0.33389466  1
  C  C4  1  0.21712807  0.43558373  0.27397590  1
  H  H5  1  0.11607552  0.39868712  0.13822434  1
  O  O6  1  0.21087052  0.38145959  0.05009051  1
  C  C7  1  0.16986168  0.26850535  0.04389940  1
  H  H8  1  0.00661093  0.38719259  0.11886276  1
  Zn  Zn9  1  0.22441249  0.03142519  0.31301542  1
  N  N10  1  0.10970995  0.47072599  0.82643308  1
  H  H11  1  0.03952602  0.26069077  0.81673752  1
  C  C12  1  0.10990086  0.32008720  0.67461525  1
  C  C13  1  0.15938258  0.44730765  0.64964256  1
  C  C14  1  0.09415825  0.16181502  0.61047630  1
  C  C15  1  0.08179098  0.33758240  0.77956853  1
  C  C16  1  0.17909362  0.08935462  0.99548634  1
  O  O17  1  0.11990184  0.15568129  0.51880743  1
  H  H18  1  0.19155609  0.45016197  0.57682022  1
  C  C19  1  0.22082751  0.05045930  0.90756125  1
  O  O20  1  0.05749821  0.03108130  0.63871949  1
  O  O21  1  0.04213251  0.69761530  0.09566585  1
  C  C22  1  0.13731814  0.73111219  0.36837685  1
  H  H23  1  0.11077251  0.99183867  0.43718018  1
  N  N24  1  0.09777075  0.85767337  0.41085321  1
  N  N25  1  0.19916794  0.76342038  0.32253715  1
  C  C26  1  0.23278230  0.63014108  0.28764561  1
  C  C27  1  0.13332401  0.95493971  0.03105047  1
  C  C28  1  0.11220338  0.55862371  0.36563671  1
  H  H29  1  0.09374226  0.96174555  0.09390673  1
  H  H30  1  0.05515034  0.81508301  0.44897463  1
  N  N31  1  0.16399824  0.55750582  0.72900554  1
  Zn  Zn32  1  0.22724663  0.75364560  0.76139290  1
  N  N33  1  0.14354730  0.82742575  0.97177431  1
  N  N34  1  0.20249454  0.89272001  0.88098149  1
  H  H35  1  0.20763850  0.85450230  0.52920293  1
  Zn  Zn36  1  0.09624716  0.59934530  0.95600846  1
  H  H37  1  0.02235633  0.76544351  0.87901648  1
  N  N38  1  0.37652376  0.17717626  0.41537674  1
  C  C39  1  0.45157070  0.41200095  0.08463782  1
  H  H40  1  0.44149976  0.11359222  0.08923527  1
  N  N41  1  0.35752556  0.13953058  0.18698915  1
  H  H42  1  0.47390781  0.28612923  0.44904063  1
  N  N43  1  0.27197722  0.01675803  0.46164460  1
  Zn  Zn44  1  0.36808566  0.37793335  0.26240366  1
  C  C45  1  0.39369810  0.05903656  0.11531237  1
  C  C46  1  0.43315770  0.19613382  0.47313915  1
  C  C47  1  0.33303792  0.07075534  0.47938733  1
  N  N48  1  0.44054138  0.47987919  0.16825982  1
  N  N49  1  0.29020304  0.01184000  0.19953430  1
  H  H50  1  0.49223843  0.05555029  0.34260352  1
  C  C51  1  0.47414457  0.29067132  0.90025796  1
  N  N52  1  0.43042402  0.12834951  0.57138515  1
  C  C53  1  0.37159641  0.04691146  0.58147425  1
  O  O54  1  0.42666372  0.19086443  0.89562462  1
  H  H55  1  0.39240583  0.06069868  0.80962509  1
  H  H56  1  0.37227450  0.49080069  0.53774665  1
  H  H57  1  0.25593894  0.13261391  0.86427788  1
  Zn  Zn58  1  0.49635059  0.14431111  0.69090535  1
  C  C59  1  0.48921954  0.40910456  0.99365312  1
  C  C60  1  0.36000955  0.90456930  0.07948679  1
  C  C61  1  0.29694927  0.88437026  0.12958952  1
  N  N62  1  0.47665724  0.66234390  0.34426881  1
  N  N63  1  0.41251527  0.53931433  0.38364589  1
  C  C64  1  0.40970380  0.55560408  0.48757496  1
  N  N65  1  0.27315112  0.51000409  0.24609399  1
  H  H66  1  0.26241188  0.77142579  0.11834148  1
  N  N67  1  0.27822294  0.89562659  0.64670965  1
  H  H68  1  0.33220695  0.90728745  0.82990853  1
  C  C69  1  0.48358495  0.71860301  0.62392348  1
  O  O70  1  0.46025850  0.66793349  0.70703381  1
  C  C71  1  0.46466524  0.67444082  0.51392301  1
  C  C72  1  0.38400438  0.77286747  0.99919756  1
  H  H73  1  0.45658474  0.70781383  0.91151360  1
  O  O74  1  0.45508593  0.79296133  0.96999469  1
  O  O75  1  0.35005948  0.67170764  0.95467953  1
  C  C76  1  0.25289555  0.92619359  0.54553459  1
  N  N77  1  0.36166758  0.95340533  0.77406042  1
  C  C78  1  0.33560360  0.96297059  0.67137908  1
  C  C79  1  0.59329230  0.15972896  0.27628326  1
  O  O80  1  0.56445113  0.37422819  0.40669742  1
  C  C81  1  0.63568177  0.12224916  0.18927878  1
  H  H82  1  0.67727283  0.20076869  0.15665562  1
  C  C83  1  0.60328157  0.33339399  0.33416207  1
  C  C84  1  0.53890548  0.04242810  0.29221337  1
  O  O85  1  0.64769523  0.43076297  0.30333135  1
  N  N86  1  0.70176336  0.28866286  0.69079175  1
  C  C87  1  0.63747444  0.07492609  0.76940715  1
  C  C88  1  0.70515601  0.16958968  0.77522953  1
  N  N89  1  0.59982024  0.16076069  0.69613132  1
  C  C90  1  0.64159522  0.29062931  0.65705970  1
  H  H91  1  0.61948187  0.38833252  0.59775621  1
  O  O92  1  0.51657303  0.29657197  0.82475714  1
  H  H93  1  0.54301443  0.83254133  0.43121390  1
  N  N94  1  0.55124499  0.90466028  0.23349357  1
  N  N95  1  0.56299882  0.63546433  0.06026147  1
  Zn  Zn96  1  0.64371867  0.78419287  0.05802668  1
  N  N97  1  0.73688155  0.63285674  0.05028228  1
  N  N98  1  0.62027719  0.96596214  0.16150392  1
  Zn  Zn99  1  0.50572128  0.68853223  0.19231104  1
  C  C100  1  0.50192020  0.73863844  0.42776068  1
  N  N101  1  0.55289313  0.90418416  0.86746034  1
  H  H102  1  0.57832299  0.51129980  0.91536964  1
  H  H103  1  0.53085180  0.85660122  0.93839934  1
  C  C104  1  0.54598299  0.52272203  0.98579722  1
  H  H105  1  0.72984336  0.52336163  0.89129590  1
  O  O106  1  0.54567163  0.83445433  0.61929297  1
  H  H107  1  0.55980937  0.80918588  0.69197959  1
  N  N108  1  0.66538190  0.92035872  0.92511978  1
  H  H109  1  0.51611543  0.98945654  0.83345975  1
  C  C110  1  0.61896301  0.95311680  0.85353151  1
  C  C111  1  0.72520770  0.99942647  0.90691891  1
  C  C112  1  0.89566348  0.44256348  0.13865607  1
  N  N113  1  0.95446442  0.37764112  0.09805799  1
  H  H114  1  0.88048720  0.06472575  0.09890385  1
  H  H115  1  0.95186113  0.34895485  0.01271773  1
  Zn  Zn116  1  0.96598802  0.47543238  0.33298947  1
  C  C117  1  0.83663376  0.48838238  0.07693545  1
  C  C118  1  0.91010407  0.01898598  0.02441357  1
  N  N119  1  0.88741617  0.35675816  0.73617864  1
  N  N120  1  0.89868090  0.06743617  0.92969798  1
  C  C121  1  0.95526754  0.35795591  0.58001211  1
  N  N122  1  0.93859210  0.24523901  0.65090605  1
  Zn  Zn123  1  0.84260742  0.25293220  0.86709569  1
  N  N124  1  0.81511385  0.44912151  0.97774582  1
  N  N125  1  0.75146988  0.12226813  0.84639475  1
  H  H126  1  0.98724639  0.31704860  0.50692538  1
  C  C127  1  0.78615434  0.60368518  0.13100810  1
  O  O128  1  0.98915991  0.64019472  0.46606173  1
  N  N129  1  0.78408439  0.64370074  0.23134500  1
  C  C130  1  0.83975438  0.60327526  0.27544345  1
  H  H131  1  0.84208151  0.64621491  0.36292137  1
  O  O132  1  0.98419369  0.85308786  0.20592132  1
  C  C133  1  0.99825028  0.81520037  0.11384433  1
  N  N134  1  0.89408190  0.50894403  0.23874100  1
  C  C135  1  0.96536040  0.90268611  0.01858745  1
  N  N136  1  0.95439849  0.97441947  0.84813357  1
  H  H137  1  0.85425662  0.63375690  0.73489104  1
  C  C138  1  0.94878675  0.67596641  0.54088624  1
  O  O139  1  0.92598691  0.82342036  0.55803582  1
  C  C140  1  0.98654178  0.86608545  0.91223218  1
  C  C141  1  0.75878884  0.53337588  0.96379810  1
  Zn  Zn142  1  0.96289444  0.98584970  0.68943340  1
  C  C143  1  0.88305283  0.51710656  0.69725274  1
  H  H144  1  0.75965069  0.96412917  0.97287453  1
  C  C145  1  0.92755293  0.52230950  0.60653569  1
