# generated using pymatgen
data_Zn9H18(C27O19)2
_symmetry_space_group_name_H-M   'P 1'
_cell_length_a   21.51482306
_cell_length_b   18.94330435
_cell_length_c   18.24064277
_cell_angle_alpha   90.00000000
_cell_angle_beta   90.00000000
_cell_angle_gamma   90.00000000
_symmetry_Int_Tables_number   1
_chemical_formula_structural   Zn9H18(C27O19)2
_chemical_formula_sum   'Zn36 H72 C216 O152'
_cell_volume   7434.18995438
_cell_formula_units_Z   4
loop_
 _symmetry_equiv_pos_site_id
 _symmetry_equiv_pos_as_xyz
  1  'x, y, z'
loop_
 _atom_site_type_symbol
 _atom_site_label
 _atom_site_symmetry_multiplicity
 _atom_site_fract_x
 _atom_site_fract_y
 _atom_site_fract_z
 _atom_site_occupancy
  H  H0  1  0.16147489  0.43990038  0.09369077  1
  H  H1  1  0.12369120  0.06951563  0.19708355  1
  C  C2  1  0.02528733  0.36502579  0.15653781  1
  C  C3  1  0.20535910  0.41310436  0.23943346  1
  O  O4  1  0.25429726  0.06798065  0.02630837  1
  C  C5  1  0.03783511  0.34795260  0.22989904  1
  O  O6  1  0.42306094  0.06356101  0.05241617  1
  O  O7  1  0.39891799  0.29789700  0.09729847  1
  Zn  Zn8  1  0.34607757  0.43267860  0.21411162  1
  C  C9  1  0.12673563  0.41651485  0.13573057  1
  C  C10  1  0.11439537  0.09497026  0.14352561  1
  C  C11  1  0.39618737  0.35805697  0.06748588  1
  C  C12  1  0.06865294  0.39802729  0.11311500  1
  O  O13  1  0.37363756  0.41296398  0.09504519  1
  C  C14  1  0.03966850  0.15664691  0.06644884  1
  Zn  Zn15  1  0.34116536  0.00686799  0.03155959  1
  C  C16  1  0.05197863  0.40677165  0.03229836  1
  C  C17  1  0.21838767  0.05974544  0.08072436  1
  C  C18  1  0.15332344  0.09401046  0.08326156  1
  Zn  Zn19  1  0.37686478  0.26354840  0.20186107  1
  H  H20  1  0.45425233  0.13514281  0.15098836  1
  C  C21  1  0.05780248  0.12873957  0.13363958  1
  O  O22  1  0.24112731  0.44241082  0.19722906  1
  C  C23  1  0.14021375  0.39739965  0.20906260  1
  C  C24  1  0.47427097  0.07507794  0.02317477  1
  O  O25  1  0.23540701  0.02218169  0.13027203  1
  C  C26  1  0.14019056  0.12424214  0.01595521  1
  C  C27  1  0.00974591  0.13963732  0.19494048  1
  O  O28  1  0.33522687  0.15937244  0.23872672  1
  C  C29  1  0.49606936  0.15536083  0.12562354  1
  C  C30  1  0.07915312  0.15184338  0.00565699  1
  O  O31  1  0.21996057  0.40515180  0.30433538  1
  C  C32  1  0.09815407  0.36600865  0.25462283  1
  O  O33  1  0.09737271  0.15084788  0.42183716  1
  C  C34  1  0.25568378  0.10055629  0.30429412  1
  C  C35  1  0.37332887  0.25496989  0.46919809  1
  H  H36  1  0.20656798  0.43912697  0.42905327  1
  H  H37  1  0.10919898  0.35588102  0.31416845  1
  H  H38  1  0.18197253  0.17814028  0.33655071  1
  C  C39  1  0.17547046  0.06500878  0.38189973  1
  C  C40  1  0.19935234  0.12063419  0.33859754  1
  O  O41  1  0.09122447  0.04404263  0.46567036  1
  C  C42  1  0.11881132  0.08981280  0.42538205  1
  C  C43  1  0.19801063  0.29559637  0.45838222  1
  O  O44  1  0.47934939  0.45059393  0.28715293  1
  C  C45  1  0.28043064  0.03226789  0.30283997  1
  C  C46  1  0.28391694  0.16432283  0.26753437  1
  O  O47  1  0.20380226  0.30378901  0.39113085  1
  Zn  Zn48  1  0.29391503  0.31454346  0.34101129  1
  O  O49  1  0.33900007  0.20246689  0.45680220  1
  O  O50  1  0.00948801  0.29233488  0.34187292  1
  O  O51  1  0.37238179  0.30795743  0.42960503  1
  H  H52  1  0.32460998  0.02343119  0.27159582  1
  O  O53  1  0.25905417  0.22618526  0.27183453  1
  O  O54  1  0.46723061  0.22600234  0.25219092  1
  O  O55  1  0.03022140  0.12510432  0.25729044  1
  Zn  Zn56  1  0.01236807  0.18141612  0.35989377  1
  O  O57  1  0.34716377  0.34052330  0.26098577  1
  C  C58  1  0.19843318  0.42611519  0.48615638  1
  O  O59  1  0.19204930  0.23616113  0.48746650  1
  O  O60  1  0.12489843  0.30673416  0.71516068  1
  O  O61  1  0.43458476  0.05678585  0.64330269  1
  C  C62  1  0.19299565  0.35483964  0.51139166  1
  C  C63  1  0.46423247  0.10710412  0.66906306  1
  C  C64  1  0.42042480  0.24577416  0.53106816  1
  O  O65  1  0.16205688  0.12624652  0.61584777  1
  C  C66  1  0.17779304  0.45938696  0.61401782  1
  O  O67  1  0.01686039  0.15770354  0.74086859  1
  C  C68  1  0.15987757  0.39192329  0.62998441  1
  O  O69  1  0.33280355  0.46888499  0.60563360  1
  C  C70  1  0.13592248  0.37222529  0.70349234  1
  C  C71  1  0.19475160  0.47630831  0.54162352  1
  O  O72  1  0.37550049  0.36962434  0.63934465  1
  C  C73  1  0.20784964  0.11744741  0.65619078  1
  O  O74  1  0.01987752  0.14664023  0.62214520  1
  H  H75  1  0.16518772  0.28108095  0.59181613  1
  C  C76  1  0.41817644  0.18410740  0.57233872  1
  C  C77  1  0.30952302  0.41322668  0.72630144  1
  H  H78  1  0.38042764  0.14238040  0.56453483  1
  C  C79  1  0.46421556  0.17441884  0.62530415  1
  C  C80  1  0.34329860  0.41793935  0.65192345  1
  C  C81  1  0.17649646  0.33629127  0.58066294  1
  O  O82  1  0.26037840  0.13948497  0.63265841  1
  O  O83  1  0.49649995  0.10192139  0.72528141  1
  Zn  Zn84  1  0.07313815  0.06647390  0.57807930  1
  C  C85  1  0.20670548  0.08256406  0.73135334  1
  C  C86  1  0.46452520  0.29861949  0.54070317  1
  H  H87  1  0.30866294  0.09677589  0.73718760  1
  Zn  Zn88  1  0.26597359  0.18649579  0.53865759  1
  H  H89  1  0.34571716  0.30613987  0.74481247  1
  C  C90  1  0.27640081  0.47247232  0.74900466  1
  H  H91  1  0.46995694  0.34459670  0.50109789  1
  O  O92  1  0.49062808  0.04583612  0.96548799  1
  C  C93  1  0.26585191  0.07510275  0.76403280  1
  C  C94  1  0.27325271  0.03533564  0.82744327  1
  C  C95  1  0.05594837  0.18765147  0.93850853  1
  C  C96  1  0.25062367  0.40322183  0.85535057  1
  C  C97  1  0.29893172  0.28247401  0.88245077  1
  Zn  Zn98  1  0.10190379  0.42791333  0.86561776  1
  C  C99  1  0.16924086  0.02026339  0.83594648  1
  H  H100  1  0.47134989  0.37223035  0.78000126  1
  C  C101  1  0.41247226  0.42959986  0.95028715  1
  C  C102  1  0.22661621  0.00044863  0.86509050  1
  O  O103  1  0.04749110  0.34005303  0.85050452  1
  C  C104  1  0.28877427  0.34968247  0.83335917  1
  O  O105  1  0.38154577  0.05861566  0.82430193  1
  C  C106  1  0.42166453  0.36538649  0.99150213  1
  O  O107  1  0.08477846  0.18573111  0.87864243  1
  H  H108  1  0.45402400  0.25568721  0.98529141  1
  H  H109  1  0.22558276  0.39445857  0.90661624  1
  O  O110  1  0.33045777  0.23542110  0.85552493  1
  C  C111  1  0.46709460  0.31257346  0.88613977  1
  Zn  Zn112  1  0.47519909  0.07677175  0.84649628  1
  O  O113  1  0.27473219  0.27707878  0.94335082  1
  C  C114  1  0.43213365  0.42957537  0.87702779  1
  C  C115  1  0.24270460  0.46583182  0.81390628  1
  O  O116  1  0.09025770  0.43759919  0.99214437  1
  C  C117  1  0.44999394  0.30804173  0.95842315  1
  C  C118  1  0.33941618  0.02673033  0.85593122  1
  C  C119  1  0.45812534  0.37237391  0.84016371  1
  Zn  Zn120  1  0.06464538  0.25527167  0.78965554  1
  H  H121  1  0.38902832  0.47879219  0.97545890  1
  H  H122  1  0.17484373  0.12225007  0.97030484  1
  O  O123  1  0.05907911  0.01163912  0.83724017  1
  C  C124  1  0.15593100  0.06015016  0.77337771  1
  O  O125  1  0.12877332  0.41820349  0.75168621  1
  C  C126  1  0.49300088  0.24657054  0.84915725  1
  O  O127  1  0.48832895  0.18971633  0.88513139  1
  O  O128  1  0.00563443  0.21780047  0.94326083  1
  O  O129  1  0.02328112  0.49009349  0.83182312  1
  C  C130  1  0.32189347  0.35340616  0.76788808  1
  H  H131  1  0.10696881  0.06649600  0.75473192  1
  C  C132  1  0.11419684  0.77915383  0.10224214  1
  O  O133  1  0.10922638  0.82945479  0.05753876  1
  O  O134  1  0.37550012  0.87782131  0.14749982  1
  O  O135  1  0.07091726  0.74383062  0.12120445  1
  C  C136  1  0.27902830  0.81711525  0.13981874  1
  H  H137  1  0.15688373  0.68282220  0.21094924  1
  C  C138  1  0.29761599  0.77347151  0.19591861  1
  H  H139  1  0.20771981  0.84900603  0.05825654  1
  C  C140  1  0.19361973  0.72058543  0.18870311  1
  C  C141  1  0.17899541  0.76796390  0.13392065  1
  C  C142  1  0.25167311  0.72613536  0.22308099  1
  C  C143  1  0.22086181  0.81509787  0.10409603  1
  C  C144  1  0.32582188  0.87071659  0.11460109  1
  O  O145  1  0.31574175  0.90307858  0.05273034  1
  Zn  Zn146  1  0.45757104  0.81343940  0.16858030  1
  O  O147  1  0.49538818  0.73503821  0.10569727  1
  C  C148  1  0.48563019  0.71038799  0.03873876  1
  O  O149  1  0.40498272  0.51628303  0.24867979  1
  H  H150  1  0.34547780  0.77475827  0.21763917  1
  H  H151  1  0.00958031  0.88149117  0.23164589  1
  C  C152  1  0.27108249  0.90646620  0.35391341  1
  C  C153  1  0.49422562  0.76587456  0.32222987  1
  O  O154  1  0.09117422  0.61840657  0.30052200  1
  O  O155  1  0.22240839  0.56592954  0.45634441  1
  C  C156  1  0.06446290  0.88046804  0.36863957  1
  Zn  Zn157  1  0.15334145  0.62366753  0.39446474  1
  C  C158  1  0.05209131  0.57306095  0.28510344  1
  O  O159  1  0.32122658  0.88846423  0.32236998  1
  O  O160  1  0.08827931  0.88487170  0.43014432  1
  C  C161  1  0.27164495  0.67981295  0.28405467  1
  H  H162  1  0.16772286  0.96011855  0.41799713  1
  O  O163  1  0.32511163  0.68798977  0.31177198  1
  O  O164  1  0.18074087  0.70907209  0.44787104  1
  O  O165  1  0.44518694  0.78271399  0.27912177  1
  C  C166  1  0.47918081  0.63834732  0.30096172  1
  O  O167  1  0.24378191  0.86329326  0.39596668  1
  O  O168  1  0.08839776  0.83410952  0.32740189  1
  C  C169  1  0.37320203  0.71252682  0.49925955  1
  Zn  Zn170  1  0.16698570  0.79453350  0.39632387  1
  O  O171  1  0.23301504  0.63481520  0.30607077  1
  Zn  Zn172  1  0.36060039  0.79144831  0.34476740  1
  O  O173  1  0.34742387  0.76283685  0.46695299  1
  O  O174  1  0.07447903  0.59230090  0.47547778  1
  C  C175  1  0.24995050  0.98145288  0.34651071  1
  C  C176  1  0.19693812  0.99751925  0.38872571  1
  C  C177  1  0.01327933  0.92697059  0.34157368  1
  C  C178  1  0.49774847  0.56867596  0.31075647  1
  H  H179  1  0.43371476  0.65482959  0.27992649  1
  H  H180  1  0.01098104  0.98886770  0.44377334  1
  C  C181  1  0.45665981  0.51112934  0.28025687  1
  H  H182  1  0.00087709  0.68486275  0.34907106  1
  O  O183  1  0.06629657  0.51387840  0.26385351  1
  O  O184  1  0.01764697  0.97734820  0.57183741  1
  C  C185  1  0.21556202  0.55197741  0.52307238  1
  C  C186  1  0.33098938  0.90245569  0.66654831  1
  Zn  Zn187  1  0.17968283  0.69887966  0.55797317  1
  O  O188  1  0.37430018  0.89444114  0.61742673  1
  Zn  Zn189  1  0.45715204  0.94847785  0.64480110  1
  H  H190  1  0.08466845  0.88151028  0.61253967  1
  O  O191  1  0.07865564  0.67688134  0.55500316  1
  C  C192  1  0.35099433  0.77834602  0.70440946  1
  O  O193  1  0.39201787  0.63885999  0.66937624  1
  C  C194  1  0.04912073  0.63411509  0.51797736  1
  C  C195  1  0.33885430  0.71841087  0.74925074  1
  C  C196  1  0.31924507  0.83887705  0.71819774  1
  Zn  Zn197  1  0.33751801  0.58384299  0.59279976  1
  O  O198  1  0.23459718  0.59594579  0.57036041  1
  O  O199  1  0.15491593  0.78189542  0.62870942  1
  C  C200  1  0.07470367  0.81417184  0.70843923  1
  C  C201  1  0.43801213  0.72543721  0.52410831  1
  C  C202  1  0.05654494  0.86685642  0.65960921  1
  H  H203  1  0.27379241  0.51800243  0.71237338  1
  H  H204  1  0.37935003  0.77382983  0.65679777  1
  H  H205  1  0.45700393  0.61188048  0.53681893  1
  O  O206  1  0.30032657  0.95461551  0.66898062  1
  C  C207  1  0.12913032  0.76896153  0.69113345  1
  C  C208  1  0.47579325  0.66677020  0.54066032  1
  C  C209  1  0.46319710  0.79330295  0.53094757  1
  H  H210  1  0.17553826  0.50058106  0.65905769  1
  O  O211  1  0.14725473  0.71803383  0.72684081  1
  C  C212  1  0.36820510  0.64994747  0.73229680  1
  O  O213  1  0.35549036  0.64897170  0.50265454  1
  H  H214  1  0.43671210  0.84328937  0.52671857  1
  O  O215  1  0.35654063  0.59511612  0.77090209  1
  O  O216  1  0.18500383  0.84457929  0.88899832  1
  C  C217  1  0.20317627  0.52784098  0.84232313  1
  O  O218  1  0.19469911  0.73113550  0.90139238  1
  Zn  Zn219  1  0.09865637  0.84933849  0.94148802  1
  O  O220  1  0.05493407  0.59346140  0.87526783  1
  H  H221  1  0.49987628  0.64305530  0.91066953  1
  C  C222  1  0.01609847  0.55346850  0.84361054  1
  Zn  Zn223  1  0.12289458  0.66516086  0.83276773  1
  C  C224  1  0.26222918  0.78283012  0.81714530  1
  O  O225  1  0.05401187  0.74800280  0.81888268  1
  H  H226  1  0.23157773  0.97026830  0.91590768  1
  O  O227  1  0.10715649  0.96352111  0.93023412  1
  C  C228  1  0.04169420  0.79700693  0.77471382  1
  C  C229  1  0.29413079  0.71816188  0.80494478  1
  C  C230  1  0.21192534  0.78530577  0.87238932  1
  H  H231  1  0.27962991  0.66768221  0.83044521  1
  O  O232  1  0.19604230  0.58586217  0.81076997  1
  H  H233  1  0.25048994  0.89117620  0.78224380  1
  C  C234  1  0.27731555  0.84278732  0.77542435  1
  C  C235  1  0.10870729  0.99655973  0.86954593  1
  O  O236  1  0.00498525  0.82506134  0.94277423  1
  Zn  Zn237  1  0.41331631  0.51936676  0.82247937  1
  O  O238  1  0.34531725  0.98841013  0.90904550  1
  O  O239  1  0.17190019  0.50939735  0.89743241  1
  O  O240  1  0.49616874  0.96553771  0.82224398  1
  H  H241  1  0.00153553  0.86742247  0.97581258  1
  O  O242  1  0.46232250  0.74526505  0.99057230  1
  Zn  Zn243  1  0.87119542  0.11620866  0.14029735  1
  C  C244  1  0.59413782  0.22592922  0.13252593  1
  O  O245  1  0.70144988  0.27328718  0.06771789  1
  C  C246  1  0.59351507  0.49659474  0.13921206  1
  O  O247  1  0.58365284  0.43212082  0.13688912  1
  Zn  Zn248  1  0.80195712  0.26119889  0.09273387  1
  C  C249  1  0.57788816  0.14146643  0.03374381  1
  H  H250  1  0.98029309  0.35639398  0.13109609  1
  O  O251  1  0.82158617  0.16571206  0.06570699  1
  C  C252  1  0.53697522  0.20362751  0.15894273  1
  O  O253  1  0.85431236  0.34258490  0.03425962  1
  C  C254  1  0.61406698  0.19297476  0.06624064  1
  H  H255  1  0.62399664  0.26637969  0.16134397  1
  O  O256  1  0.83694936  0.45598606  0.20805498  1
  O  O257  1  0.79481159  0.27367510  0.21298746  1
  H  H258  1  0.82389731  0.46709382  0.04005145  1
  O  O259  1  0.95675893  0.16140729  0.18276315  1
  H  H260  1  0.99236210  0.18071966  0.05345202  1
  C  C261  1  0.51948206  0.12462429  0.06147811  1
  C  C262  1  0.67280008  0.22282912  0.03723623  1
  C  C263  1  0.52036103  0.24188094  0.22857092  1
  O  O264  1  0.99996158  0.38545982  0.01307482  1
  H  H265  1  0.95173081  0.49233904  0.23798193  1
  O  O266  1  0.81168666  0.15788126  0.23571469  1
  O  O267  1  0.65948165  0.00486583  0.01943457  1
  O  O268  1  0.87498298  0.00413263  0.14784185  1
  Zn  Zn269  1  0.55950245  0.39858476  0.24490312  1
  C  C270  1  0.78328898  0.21309814  0.24873816  1
  O  O271  1  0.79279369  0.38873317  0.35262361  1
  C  C272  1  0.65740966  0.23431700  0.42291945  1
  C  C273  1  0.69473790  0.17251566  0.41429920  1
  C  C274  1  0.66282814  0.29236101  0.37720246  1
  H  H275  1  0.71574756  0.33180624  0.28704090  1
  H  H276  1  0.75074606  0.11236316  0.34045402  1
  Zn  Zn277  1  0.79561708  0.02331359  0.43250609  1
  C  C278  1  0.62936830  0.36143148  0.38479703  1
  Zn  Zn279  1  0.82419295  0.36610896  0.44879363  1
  H  H280  1  0.56525679  0.49194170  0.34903420  1
  C  C281  1  0.73748550  0.22277757  0.30750338  1
  C  C282  1  0.72856419  0.16118388  0.35063234  1
  O  O283  1  0.59273175  0.37896217  0.43457950  1
  O  O284  1  0.63798097  0.40309427  0.33129122  1
  O  O285  1  0.95411787  0.13273892  0.43312842  1
  H  H286  1  0.88167810  0.05206583  0.26375485  1
  H  H287  1  0.62157496  0.23679848  0.46588391  1
  O  O288  1  0.86096612  0.09466985  0.41436833  1
  Zn  Zn289  1  0.84875192  0.35735716  0.27313533  1
  C  C290  1  0.70527520  0.28519953  0.31996870  1
  C  C291  1  0.91841284  0.08749679  0.40630695  1
  Zn  Zn292  1  0.73659469  0.46892728  0.36376851  1
  O  O293  1  0.87839716  0.46382702  0.45249162  1
  O  O294  1  0.93877664  0.30902526  0.25707224  1
  C  C295  1  0.92167790  0.01958193  0.28579479  1
  C  C296  1  0.94355375  0.02640881  0.35941937  1
  C  C297  1  0.68335160  0.11749887  0.47590389  1
  C  C298  1  0.99206832  0.31690541  0.28011251  1
  O  O299  1  0.55540136  0.28453470  0.26030233  1
  O  O300  1  0.70812366  0.05742054  0.47105419  1
  Zn  Zn301  1  0.69323981  0.36773831  0.62967714  1
  C  C302  1  0.55207360  0.34480713  0.61874477  1
  C  C303  1  0.79194398  0.25656424  0.56553595  1
  O  O304  1  0.54543703  0.40049538  0.58535118  1
  H  H305  1  0.54605014  0.22154604  0.68125060  1
  O  O306  1  0.94699069  0.35725048  0.70961563  1
  H  H307  1  0.91220327  0.20999676  0.56451589  1
  O  O308  1  0.59646619  0.33075800  0.65963832  1
  C  C309  1  0.82506894  0.22173975  0.62717378  1
  O  O310  1  0.64885311  0.13039755  0.52655535  1
  C  C311  1  0.79616023  0.21116409  0.69452441  1
  O  O312  1  0.68029888  0.45731499  0.58034619  1
  C  C313  1  0.92221867  0.17845611  0.67799447  1
  H  H314  1  0.74521635  0.21894822  0.70439804  1
  C  C315  1  0.50901395  0.22554214  0.64013406  1
  C  C316  1  0.88895675  0.20451310  0.61885524  1
  O  O317  1  0.73761657  0.28166734  0.57259061  1
  O  O318  1  0.74418692  0.38238638  0.73014758  1
  O  O319  1  0.82485468  0.27152502  0.50996325  1
  O  O320  1  0.69180251  0.48255768  0.73769693  1
  C  C321  1  0.96082702  0.37284692  0.64973072  1
  C  C322  1  0.50595943  0.28665085  0.59821984  1
  O  O323  1  0.97754827  0.38781175  0.59130966  1
  Zn  Zn324  1  0.60721255  0.46318098  0.51010176  1
  C  C325  1  0.99233781  0.15889885  0.68077810  1
  O  O326  1  0.85445482  0.49672094  0.65947640  1
  C  C327  1  0.89522047  0.17076312  0.74713078  1
  H  H328  1  0.92371833  0.14771968  0.79447917  1
  C  C329  1  0.85289126  0.34869375  0.96636560  1
  Zn  Zn330  1  0.97620322  0.32634278  0.90752419  1
  O  O331  1  0.51426052  0.25157709  0.78730985  1
  O  O332  1  0.75151566  0.15732807  0.83618101  1
  O  O333  1  0.84054496  0.13725897  0.88288683  1
  O  O334  1  0.88231749  0.30804354  0.92450751  1
  C  C335  1  0.72595913  0.43512237  0.76395036  1
  C  C336  1  0.79974561  0.46093393  0.98365665  1
  C  C337  1  0.81436222  0.40577920  0.93404609  1
  C  C338  1  0.80618902  0.15458132  0.82608889  1
  C  C339  1  0.74981567  0.44978443  0.84191959  1
  Zn  Zn340  1  0.78210709  0.12768221  0.97590773  1
  H  H341  1  0.80071832  0.34990209  0.82948970  1
  C  C342  1  0.79244083  0.39843796  0.86389646  1
  H  H343  1  0.59552588  0.11419318  0.98462782  1
  O  O344  1  0.69471898  0.18957560  0.98148838  1
  O  O345  1  0.57510414  0.44788950  0.86651312  1
  C  C346  1  0.83110165  0.18034975  0.75123497  1
  C  C347  1  0.69574328  0.00389248  0.97045760  1
  O  O348  1  0.75221890  0.02169653  0.98221671  1
  H  H349  1  0.58867550  0.45256428  0.99505619  1
  C  C350  1  0.54264823  0.60582488  0.08939487  1
  C  C351  1  0.57048216  0.50822270  0.00345892  1
  O  O352  1  0.62519703  0.52307300  0.18966229  1
  C  C353  1  0.55442870  0.93303162  0.17559719  1
  H  H354  1  0.54292214  0.62967360  0.14633023  1
  O  O355  1  0.51428078  0.89883174  0.13722821  1
  C  C356  1  0.61896139  0.82836232  0.17416649  1
  O  O357  1  0.94786475  0.92756558  0.12387329  1
  O  O358  1  0.72798986  0.67960588  0.20134556  1
  C  C359  1  0.56766376  0.53974790  0.07307899  1
  C  C360  1  0.67211391  0.79380446  0.19800402  1
  Zn  Zn361  1  0.71029713  0.56873584  0.16614989  1
  H  H362  1  0.58189786  0.80255969  0.13864943  1
  O  O363  1  0.63476638  0.68043285  0.16096400  1
  O  O364  1  0.75913949  0.57863139  0.06458000  1
  C  C365  1  0.92143784  0.96638098  0.16482975  1
  O  O366  1  0.54397924  0.99103095  0.20119239  1
  C  C367  1  0.67945408  0.71465654  0.18286581  1
  C  C368  1  0.61218442  0.89778828  0.20181131  1
  C  C369  1  0.94577107  0.96669658  0.24585408  1
  C  C370  1  0.73715413  0.56927362  0.00125978  1
  C  C371  1  0.51649170  0.63879632  0.02776232  1
  C  C372  1  0.65452688  0.93316216  0.24503010  1
  C  C373  1  0.82479442  0.51229509  0.24041462  1
  C  C374  1  0.71696854  0.82638090  0.24106968  1
  O  O375  1  0.81969826  0.93444072  0.48306358  1
  O  O376  1  0.52656048  0.80977915  0.34920196  1
  C  C377  1  0.93788273  0.54242852  0.26344820  1
  O  O378  1  0.80598305  0.90318642  0.32210698  1
  C  C379  1  0.85351893  0.62417440  0.29625623  1
  C  C380  1  0.96503968  0.64899910  0.32509600  1
  C  C381  1  0.99053975  0.91893617  0.27014564  1
  H  H382  1  0.97608498  0.53546690  0.46699138  1
  C  C383  1  0.98883073  0.98138595  0.38787384  1
  O  O384  1  0.69328390  0.63021999  0.41120211  1
  C  C385  1  0.57371811  0.67596947  0.36561434  1
  C  C386  1  0.75857468  0.93526948  0.30378214  1
  C  C387  1  0.90117590  0.66698374  0.32150583  1
  O  O388  1  0.92502714  0.77888556  0.37402524  1
  H  H389  1  0.80097980  0.63698100  0.30348195  1
  C  C390  1  0.55475079  0.55031418  0.34415666  1
  C  C391  1  0.65550574  0.58762463  0.40040243  1
  Zn  Zn392  1  0.81552721  0.84428544  0.42716718  1
  H  H393  1  0.60405425  0.72034576  0.38083754  1
  O  O394  1  0.82733707  0.75366400  0.36763218  1
  C  C395  1  0.59178835  0.60490476  0.36817633  1
  C  C396  1  0.88463182  0.73896168  0.35490306  1
  O  O397  1  0.66367575  0.51705009  0.41317459  1
  C  C398  1  0.98163320  0.58517859  0.29475325  1
  C  C399  1  0.51770452  0.69052425  0.33016314  1
  C  C400  1  0.70991267  0.89677077  0.26114593  1
  C  C401  1  0.84896737  0.52181513  0.45834094  1
  O  O402  1  0.79105530  0.52542066  0.44763726  1
  C  C403  1  0.87501615  0.56184909  0.26429488  1
  C  C404  1  0.88200604  0.58617273  0.48661647  1
  H  H405  1  0.75781881  0.79357275  0.25803770  1
  O  O406  1  0.74692423  0.99754649  0.32885299  1
  O  O407  1  0.76817642  0.52441458  0.25777887  1
  C  C408  1  0.94589080  0.58251731  0.48448842  1
  H  H409  1  0.65025355  0.98760892  0.26407091  1
  O  O410  1  0.79984916  0.78255745  0.54119336  1
  O  O411  1  0.63061110  0.62345377  0.60178937  1
  O  O412  1  0.55539610  0.55293016  0.56308272  1
  H  H413  1  0.91475954  0.90864150  0.73511128  1
  C  C414  1  0.52603190  0.80020327  0.54597035  1
  O  O415  1  0.75531664  0.93010467  0.64702360  1
  C  C416  1  0.86563744  0.67217523  0.74656896  1
  O  O417  1  0.51931615  0.92820010  0.55349644  1
  O  O418  1  0.92570099  0.98273833  0.62274741  1
  C  C419  1  0.88506902  0.70205066  0.53792234  1
  C  C420  1  0.97848953  0.63943943  0.51450197  1
  O  O421  1  0.88277937  0.81315325  0.60281894  1
  Zn  Zn422  1  0.69997352  0.54486128  0.63609153  1
  C  C423  1  0.76823313  0.94433065  0.71360231  1
  C  C424  1  0.53792565  0.67622535  0.56160557  1
  C  C425  1  0.85056367  0.76993578  0.56640417  1
  C  C426  1  0.56426994  0.74293831  0.55868619  1
  C  C427  1  0.55470317  0.87446177  0.54594654  1
  C  C428  1  0.95026510  0.69929907  0.54101106  1
  C  C429  1  0.83842708  0.55637751  0.67434283  1
  O  O430  1  0.52776588  0.91841406  0.71941469  1
  H  H431  1  0.61247618  0.75635872  0.57418621  1
  H  H432  1  0.97287172  0.74420565  0.57041102  1
  C  C433  1  0.57791736  0.61305966  0.57731154  1
  H  H434  1  0.63941539  0.93316451  0.68913967  1
  Zn  Zn435  1  0.84611356  0.92306686  0.58990854  1
  C  C436  1  0.95927615  0.87880148  0.72754648  1
  O  O437  1  0.79044587  0.58544384  0.64469108  1
  H  H438  1  0.82386281  0.70246849  0.72887985  1
  O  O439  1  0.61022880  0.87734495  0.54487997  1
  O  O440  1  0.82125225  0.95037188  0.73107960  1
  C  C441  1  0.87767212  0.60013355  0.72663155  1
  C  C442  1  0.97925570  0.95765282  0.62001472  1
  C  C443  1  0.84892287  0.64849464  0.50933512  1
  C  C444  1  0.99872772  0.90103699  0.67042625  1
  C  C445  1  0.65161295  0.94666663  0.74705585  1
  H  H446  1  0.92884048  0.50555238  0.74017432  1
  O  O447  1  0.68355981  0.75855398  0.73935367  1
  H  H448  1  0.79821959  0.65167227  0.50480318  1
  C  C449  1  0.60507159  0.95206028  0.80072995  1
  Zn  Zn450  1  0.89630439  0.80719406  0.83315091  1
  C  C451  1  0.96164794  0.59075251  0.81258116  1
  H  H452  1  0.69504428  0.54701853  0.87095803  1
  C  C453  1  0.53765062  0.94462770  0.78020852  1
  C  C454  1  0.97193213  0.86748382  0.86260916  1
  O  O455  1  0.95227503  0.92461701  0.88423533  1
  C  C456  1  0.51990852  0.61207166  0.95681861  1
  C  C457  1  0.71266239  0.95532244  0.76727986  1
  C  C458  1  0.61975414  0.97067521  0.87416931  1
  C  C459  1  0.72831985  0.97629754  0.83724535  1
  C  C460  1  0.95475326  0.66294692  0.82933904  1
  C  C461  1  0.98446222  0.83792439  0.78758771  1
  H  H462  1  0.98493201  0.69042618  0.87308922  1
  C  C463  1  0.90447582  0.69990936  0.79975010  1
  H  H464  1  0.77614207  0.98318219  0.85049584  1
  O  O465  1  0.51295572  0.52884356  0.82416501  1
  H  H466  1  0.58712797  0.97152599  0.91901539  1
  C  C467  1  0.54539266  0.54506980  0.94699502  1
  C  C468  1  0.72635762  0.75731655  0.77740543  1
  O  O469  1  0.76942414  0.75553015  0.81672364  1
  C  C470  1  0.68102148  0.98087978  0.89005263  1
  O  O471  1  0.69812562  0.60665900  0.97342772  1
  C  C472  1  0.54502037  0.50219729  0.87330145  1
  C  C473  1  0.72953703  0.50424636  0.88439125  1
  C  C474  1  0.75766030  0.50557903  0.95419125  1
  C  C475  1  0.92282106  0.55835148  0.75656126  1
