# generated using pymatgen
data_ZnH3(C3O2)3
_symmetry_space_group_name_H-M   'P 1'
_cell_length_a   17.99178926
_cell_length_b   10.70548560
_cell_length_c   14.23748324
_cell_angle_alpha   90.00000000
_cell_angle_beta   90.00000000
_cell_angle_gamma   90.00000000
_symmetry_Int_Tables_number   1
_chemical_formula_structural   ZnH3(C3O2)3
_chemical_formula_sum   'Zn8 H24 C72 O48'
_cell_volume   2742.29361975
_cell_formula_units_Z   8
loop_
 _symmetry_equiv_pos_site_id
 _symmetry_equiv_pos_as_xyz
  1  'x, y, z'
loop_
 _atom_site_type_symbol
 _atom_site_label
 _atom_site_symmetry_multiplicity
 _atom_site_fract_x
 _atom_site_fract_y
 _atom_site_fract_z
 _atom_site_occupancy
  O  O0  1  0.06153998  0.32099768  0.35904893  1
  Zn  Zn1  1  0.02900986  0.14073492  0.33043353  1
  C  C2  1  0.21324777  0.40389948  0.33731345  1
  O  O3  1  0.05512986  0.24869153  0.10448873  1
  C  C4  1  0.23396622  0.11412051  0.44696698  1
  H  H5  1  0.18759390  0.37078348  0.27131016  1
  C  C6  1  0.09585374  0.35464318  0.43213743  1
  C  C7  1  0.17632362  0.39845764  0.42338102  1
  C  C8  1  0.01745946  0.15473767  0.11430380  1
  C  C9  1  0.24273388  0.07974079  0.35392352  1
  H  H10  1  0.18133457  0.10660694  0.48516932  1
  C  C11  1  0.17969573  0.01436251  0.30080079  1
  O  O12  1  0.11844539  0.01126861  0.34443409  1
  H  H13  1  0.17850176  0.43805704  0.57052964  1
  C  C14  1  0.02318117  0.09808480  0.94031003  1
  O  O15  1  0.06927422  0.34328432  0.51309509  1
  H  H16  1  0.06612280  0.16681405  0.92518646  1
  O  O17  1  0.08806345  0.12831911  0.76637980  1
  Zn  Zn18  1  0.20154612  0.06446367  0.75172606  1
  C  C19  1  0.21272320  0.43939731  0.50461580  1
  C  C20  1  0.03371885  0.05036887  0.77108892  1
  O  O21  1  0.22810700  0.14945212  0.62789439  1
  C  C22  1  0.19803385  0.78295561  0.44400875  1
  O  O23  1  0.18549412  0.96683330  0.22327633  1
  H  H24  1  0.21725034  0.72162116  0.29314294  1
  C  C25  1  0.23734177  0.75752345  0.36280220  1
  C  C26  1  0.19709833  0.81766895  0.53444562  1
  H  H27  1  0.15069988  0.81113980  0.58764820  1
  O  O28  1  0.01155410  0.99191180  0.70540690  1
  O  O29  1  0.08547483  0.59897402  0.82417065  1
  C  C30  1  0.10028887  0.59986641  0.74550663  1
  O  O31  1  0.11197380  0.60574989  0.66538154  1
  C  C32  1  0.30815730  0.09224784  0.29999895  1
  O  O33  1  0.44850764  0.09063647  0.21896130  1
  C  C34  1  0.29795899  0.16218692  0.48990546  1
  C  C35  1  0.44066687  0.15375712  0.29029315  1
  O  O36  1  0.28641596  0.41061005  0.17493623  1
  C  C37  1  0.36535514  0.17860622  0.44060699  1
  C  C38  1  0.28688848  0.44691101  0.33696705  1
  C  C39  1  0.36965541  0.13932149  0.34837036  1
  H  H40  1  0.41125187  0.22801079  0.47453175  1
  C  C41  1  0.31878391  0.44453763  0.24201919  1
  H  H42  1  0.31076129  0.05373422  0.23037065  1
  O  O43  1  0.48534404  0.23819550  0.31478467  1
  O  O44  1  0.39169748  0.47650451  0.23143725  1
  C  C45  1  0.49662479  0.46660759  0.08863534  1
  C  C46  1  0.32475115  0.49488079  0.41723864  1
  C  C47  1  0.28380715  0.49020269  0.49842710  1
  O  O48  1  0.34302416  0.20751064  0.64351482  1
  H  H49  1  0.38556291  0.22345996  0.82215947  1
  C  C50  1  0.39400248  0.06892450  0.91939747  1
  C  C51  1  0.30844421  0.05940255  0.92102460  1
  C  C52  1  0.29084051  0.18616851  0.59434445  1
  C  C53  1  0.42008415  0.16556330  0.86433638  1
  O  O54  1  0.49602876  0.33348265  0.74013952  1
  C  C55  1  0.49796611  0.17131988  0.85476499  1
  O  O56  1  0.26705542  0.12174399  0.86477708  1
  H  H57  1  0.33702047  0.61655736  0.08428132  1
  C  C58  1  0.37098802  0.80278942  0.31794837  1
  O  O59  1  0.43905318  0.82576927  0.33927466  1
  O  O60  1  0.35543992  0.79040978  0.23461168  1
  C  C61  1  0.31264430  0.79057758  0.39369993  1
  C  C62  1  0.38944954  0.57831150  0.06296796  1
  Zn  Zn63  1  0.49942549  0.88337209  0.21797382  1
  H  H64  1  0.37846260  0.53928763  0.41601110  1
  C  C65  1  0.42759472  0.50093461  0.12819118  1
  H  H66  1  0.41080232  0.91267230  0.01625107  1
  C  C67  1  0.33102762  0.81829748  0.48452258  1
  H  H68  1  0.38549587  0.66210680  0.92710735  1
  O  O69  1  0.37316584  0.84454854  0.66674955  1
  C  C70  1  0.27594301  0.82640111  0.55628729  1
  C  C71  1  0.30408268  0.85605261  0.64913197  1
  Zn  Zn72  1  0.45777301  0.70635333  0.66236654  1
  O  O73  1  0.25863726  0.88418436  0.71365646  1
  H  H74  1  0.38858471  0.84052309  0.50040793  1
  O  O75  1  0.39936355  0.58307768  0.56708911  1
  O  O76  1  0.30477148  0.53239834  0.65632683  1
  C  C77  1  0.33427377  0.53763778  0.57995165  1
  O  O78  1  0.49478744  0.68605953  0.80435694  1
  C  C79  1  0.49122201  0.57255464  0.94810582  1
  C  C80  1  0.41921012  0.60902760  0.97670029  1
  C  C81  1  0.43607936  0.98294718  0.97084487  1
  O  O82  1  0.28493911  0.98217931  0.97414148  1
  C  C83  1  0.65909072  0.11344781  0.41531244  1
  C  C84  1  0.70318490  0.03382002  0.36421564  1
  H  H85  1  0.60063584  0.12135049  0.40236026  1
  C  C86  1  0.53712395  0.49614927  0.00692160  1
  C  C87  1  0.69343676  0.18745548  0.48465436  1
  C  C88  1  0.70001782  0.26859623  0.08527419  1
  Zn  Zn89  1  0.51802983  0.35982787  0.20378103  1
  O  O90  1  0.71757621  0.19790051  0.02609248  1
  O  O91  1  0.68438514  0.33721190  0.14449022  1
  O  O92  1  0.60114378  0.26565866  0.79736246  1
  Zn  Zn93  1  0.62489457  0.43551875  0.72094388  1
  O  O94  1  0.67045520  0.33227289  0.61376487  1
  C  C95  1  0.64216995  0.26911851  0.54610827  1
  C  C96  1  0.54368772  0.07875399  0.89602735  1
  C  C97  1  0.53060049  0.26198800  0.78929619  1
  H  H98  1  0.60571335  0.08830349  0.88125306  1
  O  O99  1  0.57836364  0.27757462  0.52137179  1
  H  H100  1  0.59457893  0.46476887  0.99333034  1
  H  H101  1  0.56204262  0.69163598  0.39111938  1
  C  C102  1  0.61380741  0.65041371  0.22224447  1
  Zn  Zn103  1  0.70491606  0.80086327  0.10029304  1
  O  O104  1  0.64675275  0.63787028  0.14636865  1
  O  O105  1  0.54629010  0.68714987  0.22079664  1
  C  C106  1  0.61840289  0.65475564  0.39416197  1
  C  C107  1  0.65695604  0.62765141  0.31291212  1
  C  C108  1  0.66616989  0.96140824  0.28641167  1
  C  C109  1  0.72914652  0.57860080  0.31145523  1
  C  C110  1  0.56182579  0.90235728  0.01036520  1
  C  C111  1  0.65116949  0.63527187  0.48164401  1
  O  O112  1  0.70671995  0.88952037  0.24027339  1
  O  O113  1  0.60217066  0.98885609  0.25900956  1
  O  O114  1  0.52456541  0.84231919  0.06968838  1
  O  O115  1  0.63091405  0.88884566  0.00136474  1
  C  C116  1  0.72195621  0.57828777  0.48221259  1
  O  O117  1  0.63581349  0.61187749  0.64598531  1
  O  O118  1  0.54776355  0.70842246  0.56705328  1
  C  C119  1  0.61194603  0.65534225  0.56992668  1
  O  O120  1  0.58929375  0.56548543  0.84053570  1
  C  C121  1  0.52777771  0.61042325  0.85856787  1
  C  C122  1  0.51208695  0.99170680  0.95576167  1
  H  H123  1  0.74378551  0.55383193  0.55090750  1
  C  C124  1  0.81246208  0.11180985  0.44205164  1
  C  C125  1  0.89323488  0.12634603  0.46378632  1
  C  C126  1  0.99217290  0.07725672  0.02754537  1
  O  O127  1  0.93660090  0.06337233  0.41387942  1
  C  C128  1  0.77982539  0.02654726  0.37972739  1
  C  C129  1  0.76822744  0.19143146  0.49773931  1
  O  O130  1  0.98619920  0.13111066  0.19330228  1
  O  O131  1  0.85722820  0.46238539  0.48236821  1
  H  H132  1  0.79545008  0.25100863  0.55530048  1
  O  O133  1  0.91953702  0.19215500  0.52944562  1
  Zn  Zn134  1  0.95841820  0.38956174  0.53258606  1
  O  O135  1  0.94706180  0.41481581  0.70289291  1
  C  C136  1  0.89077871  0.37253581  0.73675249  1
  O  O137  1  0.83819090  0.33246569  0.77096280  1
  C  C138  1  0.99915232  0.02110453  0.86806169  1
  O  O139  1  0.81825796  0.83726483  0.07842489  1
  C  C140  1  0.75962805  0.55538191  0.39982902  1
  H  H141  1  0.75999807  0.56845039  0.24687380  1
  C  C142  1  0.83780583  0.50486443  0.40269999  1
  C  C143  1  0.93601134  0.99055255  0.04364870  1
  H  H144  1  0.91212417  0.97493077  0.11217644  1
  H  H145  1  0.81703790  0.96973681  0.33655640  1
  O  O146  1  0.87729083  0.50540941  0.33259640  1
  H  H147  1  0.91992724  0.87202720  0.82431635  1
  C  C148  1  0.94256333  0.93123214  0.88000157  1
  O  O149  1  0.81493149  0.78260197  0.92830859  1
  C  C150  1  0.90920678  0.92324071  0.96606852  1
  C  C151  1  0.84223091  0.84185941  0.99443606  1
