# generated using pymatgen
data_CuH10(C9O2)2
_symmetry_space_group_name_H-M   'P 1'
_cell_length_a   21.27511331
_cell_length_b   13.35494987
_cell_length_c   17.32691591
_cell_angle_alpha   90.00000000
_cell_angle_beta   90.00000000
_cell_angle_gamma   90.00000000
_symmetry_Int_Tables_number   1
_chemical_formula_structural   CuH10(C9O2)2
_chemical_formula_sum   'Cu12 H120 C216 O48'
_cell_volume   4923.06320550
_cell_formula_units_Z   12
loop_
 _symmetry_equiv_pos_site_id
 _symmetry_equiv_pos_as_xyz
  1  'x, y, z'
loop_
 _atom_site_type_symbol
 _atom_site_label
 _atom_site_symmetry_multiplicity
 _atom_site_fract_x
 _atom_site_fract_y
 _atom_site_fract_z
 _atom_site_occupancy
  H  H0  1  0.15648046  0.35290032  0.16847916  1
  C  C1  1  0.13507200  0.10234963  0.02346443  1
  C  C2  1  0.08668989  0.46816742  0.14089370  1
  C  C3  1  0.03021359  0.40259602  0.26707390  1
  H  H4  1  0.11060173  0.14671505  0.19048736  1
  C  C5  1  0.13101435  0.39272082  0.12364975  1
  C  C6  1  0.20121066  0.10212262  0.03475952  1
  C  C7  1  0.14082010  0.11269720  0.23565963  1
  C  C8  1  0.07515793  0.46828638  0.22847324  1
  O  O9  1  0.24246980  0.33709809  0.27110616  1
  C  C10  1  0.14625393  0.36957005  0.04462742  1
  C  C11  1  0.21225638  0.15891769  0.22930683  1
  H  H12  1  0.11668646  0.15033121  0.28618257  1
  H  H13  1  0.21942499  0.06774832  0.08917286  1
  C  C14  1  0.22482489  0.25703606  0.25253926  1
  C  C15  1  0.01956988  0.43110603  0.34474361  1
  H  H16  1  0.11302741  0.06065737  0.07267534  1
  H  H17  1  0.00305261  0.34303191  0.23401566  1
  H  H18  1  0.17783237  0.30686945  0.02864052  1
  C  C19  1  0.13786149  0.00127856  0.23129661  1
  H  H20  1  0.03084331  0.12656078  0.49021839  1
  O  O21  1  0.00512283  0.09731663  0.01688257  1
  C  C22  1  0.02803201  0.45706679  0.89648899  1
  C  C23  1  0.10233970  0.14720841  0.96458091  1
  H  H24  1  0.06037745  0.29330761  0.75788145  1
  C  C25  1  0.08443465  0.13016742  0.59632298  1
  C  C26  1  0.08648133  0.16752264  0.67782852  1
  C  C27  1  0.09391054  0.46885335  0.92128149  1
  H  H28  1  0.18622276  0.35677222  0.72205881  1
  C  C29  1  0.12831020  0.11656729  0.72486679  1
  H  H30  1  0.11278897  0.22291509  0.84984720  1
  C  C31  1  0.11880860  0.41961965  0.98428791  1
  C  C32  1  0.03473033  0.14579843  0.95994555  1
  H  H33  1  0.23230560  0.19855162  0.76473099  1
  C  C34  1  0.20190629  0.19341218  0.90572744  1
  C  C35  1  0.05150875  0.25887049  0.70108981  1
  H  H36  1  0.11647529  0.06798905  0.58392472  1
  C  C37  1  0.13606659  0.19827219  0.90140721  1
  C  C38  1  0.03872222  0.16085762  0.54661836  1
  C  C39  1  0.23816432  0.35088462  0.71833887  1
  C  C40  1  0.23871629  0.14802856  0.97785409  1
  C  C41  1  0.17086852  0.04133006  0.75031605  1
  H  H42  1  0.17353498  0.02929930  0.81223491  1
  C  C43  1  0.00097535  0.24136596  0.57496832  1
  O  O44  1  0.00717068  0.18678294  0.91040675  1
  C  C45  1  0.01199221  0.29453254  0.64508220  1
  H  H46  1  0.12086377  0.63084721  0.37085484  1
  H  H47  1  0.15383887  0.79802491  0.46213778  1
  C  C48  1  0.03838291  0.52993668  0.46115101  1
  Cu  Cu49  1  0.08158369  0.80963939  0.14158135  1
  O  O50  1  0.10833076  0.86805697  0.05393995  1
  H  H51  1  0.21876502  0.92464650  0.05325678  1
  H  H52  1  0.14015374  0.59591588  0.22642527  1
  O  O53  1  0.14099259  0.78937562  0.21359238  1
  O  O54  1  0.06951452  0.59468387  0.49687289  1
  C  C55  1  0.19065605  0.83750356  0.21389908  1
  C  C56  1  0.09723978  0.57106917  0.33910406  1
  C  C57  1  0.10850844  0.55124803  0.26136200  1
  H  H58  1  0.09383797  0.56375357  0.03645277  1
  C  C59  1  0.19074347  0.94952604  0.21608398  1
  O  O60  1  0.24501345  0.79894768  0.21169082  1
  H  H61  1  0.09719374  0.96055755  0.25008684  1
  O  O62  1  0.24222184  0.74925336  0.37347182  1
  C  C63  1  0.05226537  0.51154086  0.37956489  1
  C  C64  1  0.06519639  0.54119973  0.08586437  1
  C  C65  1  0.00385361  0.58219290  0.09655866  1
  C  C66  1  0.19629121  0.82681112  0.87218322  1
  C  C67  1  0.21514737  0.89886757  0.63694316  1
  C  C68  1  0.03031181  0.57235636  0.70069208  1
  C  C69  1  0.18386694  0.85171380  0.94875911  1
  O  O70  1  0.06802191  0.61318266  0.65244375  1
  C  C71  1  0.19715847  0.96836063  0.69552794  1
  C  C72  1  0.17052561  0.86386779  0.57661748  1
  O  O73  1  0.08469077  0.79131776  0.94459091  1
  H  H74  1  0.14912138  0.61199064  0.76470489  1
  H  H75  1  0.16310384  0.77358664  0.84308880  1
  H  H76  1  0.12121511  0.88189528  0.58672039  1
  C  C77  1  0.18744004  0.81801311  0.50943554  1
  C  C78  1  0.22898021  0.90330054  0.99193051  1
  C  C79  1  0.11543976  0.56825668  0.79993713  1
  Cu  Cu80  1  0.12119142  0.55292025  0.57772447  1
  C  C81  1  0.12268902  0.83709165  0.98645495  1
  H  H82  1  0.18487807  0.53844580  0.89252467  1
  C  C83  1  0.24883110  0.86339560  0.83392687  1
  C  C84  1  0.13488833  0.52892723  0.86839714  1
  C  C85  1  0.00696217  0.50222567  0.82957714  1
  C  C86  1  0.05099773  0.54922595  0.77783716  1
  C  C87  1  0.24117196  0.50219448  0.63994060  1
  O  O88  1  0.18041370  0.50672037  0.64624173  1
  C  C89  1  0.41837829  0.13350873  0.02692963  1
  C  C90  1  0.30595944  0.46749124  0.37056003  1
  C  C91  1  0.43733709  0.45856979  0.37410444  1
  H  H92  1  0.48950705  0.45311326  0.37670255  1
  H  H93  1  0.44162081  0.36748572  0.26993323  1
  C  C94  1  0.41181370  0.40481721  0.31571634  1
  H  H95  1  0.40647439  0.00810828  0.15651759  1
  C  C96  1  0.41091774  0.45656294  0.11214773  1
  C  C97  1  0.46805935  0.09149766  0.06755414  1
  O  O98  1  0.34383108  0.31334873  0.20675295  1
  H  H99  1  0.30922677  0.12515991  0.19656294  1
  C  C100  1  0.31682920  0.35279711  0.25626992  1
  C  C101  1  0.45642942  0.02396665  0.13617477  1
  C  C102  1  0.46426939  0.39079714  0.10150053  1
  C  C103  1  0.34483329  0.41361193  0.31651296  1
  C  C104  1  0.26210679  0.09306673  0.20782084  1
  H  H105  1  0.25464077  0.45686389  0.37317662  1
  H  H106  1  0.39906295  0.47452764  0.17198195  1
  C  C107  1  0.48914829  0.34161735  0.03615233  1
  C  C108  1  0.37501735  0.49622441  0.05260915  1
  H  H109  1  0.40197070  0.13382025  0.65519192  1
  C  C110  1  0.46823912  0.22191526  0.84150172  1
  H  H111  1  0.35774748  0.00133025  0.55727832  1
  C  C112  1  0.27613025  0.42305128  0.67982680  1
  C  C113  1  0.33078112  0.08667600  0.83010154  1
  C  C114  1  0.37065392  0.33201876  0.72749578  1
  C  C115  1  0.32861531  0.24979151  0.74889191  1
  H  H116  1  0.42187209  0.32980534  0.73706556  1
  H  H117  1  0.47737807  0.15649628  0.73084597  1
  C  C118  1  0.35339275  0.14556782  0.76728003  1
  H  H119  1  0.37045786  0.46867516  0.66175898  1
  C  C120  1  0.45701158  0.31360837  0.96532405  1
  C  C121  1  0.38900488  0.09894664  0.70668676  1
  H  H122  1  0.29531317  0.11494851  0.86845642  1
  H  H123  1  0.43554975  0.16334273  0.86128429  1
  C  C124  1  0.34193267  0.40829399  0.68682144  1
  C  C125  1  0.49451947  0.21723904  0.76969673  1
  H  H126  1  0.37461008  0.31212812  0.89837778  1
  H  H127  1  0.45083451  0.49607723  0.87827456  1
  C  C128  1  0.38740163  0.29269682  0.95911367  1
  C  C129  1  0.49019865  0.30245626  0.89129053  1
  C  C130  1  0.26258470  0.26100023  0.74829869  1
  C  C131  1  0.30518123  0.15650341  0.98443071  1
  C  C132  1  0.37033033  0.17871137  0.98379028  1
  O  O133  1  0.37756721  0.49593711  0.97657452  1
  H  H134  1  0.36012090  0.34322319  0.99927777  1
  O  O135  1  0.44869635  0.79786293  0.36876047  1
  O  O136  1  0.33514276  0.73286076  0.43185081  1
  C  C137  1  0.49347051  0.82507359  0.05410856  1
  H  H138  1  0.32268140  0.72007775  0.05881920  1
  C  C139  1  0.41114188  0.73404995  0.11793977  1
  C  C140  1  0.37105941  0.74976617  0.05431816  1
  O  O141  1  0.33305132  0.65738538  0.19612335  1
  H  H142  1  0.28492453  0.94280786  0.17417911  1
  H  H143  1  0.30930636  0.56967502  0.46595633  1
  Cu  Cu144  1  0.28209961  0.70285369  0.28033347  1
  Cu  Cu145  1  0.39276939  0.69488032  0.34674636  1
  H  H146  1  0.33258107  0.53782184  0.06894764  1
  C  C147  1  0.27734005  0.75196082  0.43495236  1
  C  C148  1  0.39014704  0.68459310  0.18919245  1
  H  H149  1  0.49962889  0.77654816  0.17496486  1
  O  O150  1  0.42621888  0.67305175  0.24621083  1
  C  C151  1  0.47278708  0.77610885  0.12143950  1
  H  H152  1  0.39336082  0.91799413  0.43825676  1
  C  C153  1  0.40356665  0.51882736  0.42858900  1
  C  C154  1  0.33790160  0.52801611  0.42482820  1
  C  C155  1  0.25008412  0.99181850  0.19447126  1
  C  C156  1  0.48987275  0.79650608  0.42742791  1
  C  C157  1  0.41612254  0.90587843  0.49600436  1
  H  H158  1  0.49179997  0.93561177  0.23041779  1
  C  C159  1  0.44607105  0.55631978  0.49569005  1
  O  O160  1  0.27120564  0.56650730  0.60598180  1
  H  H161  1  0.31844042  0.88466637  0.67251346  1
  C  C162  1  0.39882381  0.95335838  0.56339999  1
  C  C163  1  0.36656537  0.58757709  0.85276786  1
  H  H164  1  0.34191748  0.77157506  0.56657738  1
  C  C165  1  0.48466709  0.88306052  0.91942259  1
  C  C166  1  0.44494672  0.62186626  0.62827204  1
  C  C167  1  0.41522354  0.61725262  0.70851058  1
  H  H168  1  0.33287171  0.72007515  0.69039167  1
  C  C169  1  0.48244418  0.87991686  0.63778634  1
  C  C170  1  0.33790159  0.98012604  0.82308868  1
  O  O171  1  0.29473741  0.61250345  0.95356703  1
  C  C172  1  0.37828270  0.93094470  0.76792015  1
  C  C173  1  0.42856980  0.94315719  0.63526294  1
  C  C174  1  0.34041107  0.57570595  0.92957736  1
  C  C175  1  0.35882067  0.67014323  0.72587301  1
  H  H176  1  0.38986713  0.85194254  0.77274156  1
  H  H177  1  0.28567459  0.67101812  0.81158914  1
  C  C178  1  0.45511978  0.83820832  0.98708206  1
  C  C179  1  0.33251427  0.64237081  0.79589383  1
  H  H180  1  0.47785483  0.58368330  0.95204124  1
  H  H181  1  0.45289642  0.90267277  0.87148103  1
  C  C182  1  0.25307351  0.79447733  0.50460619  1
  H  H183  1  0.35997413  0.58101538  0.56146108  1
  C  C184  1  0.29400514  0.80210662  0.56986450  1
  C  C185  1  0.41074693  0.58490363  0.56104317  1
  C  C186  1  0.29107943  0.92746563  0.87394022  1
  C  C187  1  0.27905170  0.94391912  0.95329505  1
  C  C188  1  0.28148036  0.86421347  0.63267754  1
  C  C189  1  0.42542275  0.54365505  0.83750955  1
  H  H190  1  0.36121333  0.79665177  0.93578756  1
  H  H191  1  0.48023023  0.69977666  0.82380696  1
  C  C192  1  0.40053563  0.99296013  0.70660595  1
  H  H193  1  0.31151299  0.98851281  0.98803408  1
  H  H194  1  0.25646275  0.84137816  0.77310199  1
  C  C195  1  0.44821638  0.55684142  0.76319260  1
  C  C196  1  0.39060541  0.79651301  0.98663197  1
  H  H197  1  0.49118094  0.51441367  0.74633224  1
  C  C198  1  0.47090561  0.85112641  0.50107090  1
  C  C199  1  0.57332708  0.36203419  0.31292783  1
  H  H200  1  0.62895421  0.08583580  0.06985902  1
  C  C201  1  0.58048182  0.06654204  0.08561810  1
  H  H202  1  0.53226317  0.49869730  0.04683816  1
  H  H203  1  0.51633408  0.19731140  0.17008473  1
  C  C204  1  0.59558131  0.35035137  0.38959548  1
  H  H205  1  0.53899568  0.31910669  0.03389813  1
  O  O206  1  0.61016265  0.42323330  0.43376793  1
  C  C207  1  0.53296968  0.10594769  0.04076877  1
  O  O208  1  0.59532340  0.26024876  0.41768175  1
  H  H209  1  0.57055795  0.20348896  0.29814884  1
  C  C210  1  0.56993822  0.46016560  0.27680696  1
  C  C211  1  0.55713601  0.27452595  0.26813965  1
  O  O212  1  0.62810653  0.38619828  0.08876618  1
  C  C213  1  0.52901813  0.27007546  0.19738263  1
  C  C214  1  0.53745577  0.44751473  0.20995280  1
  C  C215  1  0.65509012  0.44550537  0.05370881  1
  O  O216  1  0.72882895  0.45076286  0.06258185  1
  C  C217  1  0.51008954  0.37104694  0.16918923  1
  H  H218  1  0.65756383  0.28011450  0.98552990  1
  H  H219  1  0.61248599  0.11043266  0.80804398  1
  Cu  Cu220  1  0.60712490  0.40650176  0.53918593  1
  O  O221  1  0.73400167  0.21633362  0.52405393  1
  C  C222  1  0.56045682  0.36940568  0.79435021  1
  C  C223  1  0.65133025  0.13918502  0.77332938  1
  C  C224  1  0.54340622  0.36719470  0.87187782  1
  C  C225  1  0.55987538  0.29671507  0.66645779  1
  O  O226  1  0.59289971  0.36898362  0.64609292  1
  H  H227  1  0.61228095  0.08707164  0.66731011  1
  C  C228  1  0.53564465  0.29682297  0.74640626  1
  C  C229  1  0.65084845  0.13070052  0.69465787  1
  C  C230  1  0.69273531  0.17556959  0.56763375  1
  C  C231  1  0.70095659  0.17419050  0.65023358  1
  O  O232  1  0.64126818  0.14704028  0.53710959  1
  H  H233  1  0.59988890  0.42175008  0.77724460  1
  H  H234  1  0.56208306  0.42179151  0.91369873  1
  Cu  Cu235  1  0.57109439  0.23116950  0.51738900  1
  O  O236  1  0.54335992  0.23260774  0.61787108  1
  C  C237  1  0.69913473  0.24305834  0.96317306  1
  C  C238  1  0.70446491  0.19551784  0.80909805  1
  C  C239  1  0.70308539  0.21888727  0.88723519  1
  H  H240  1  0.69419180  0.06140401  0.96549883  1
  H  H241  1  0.53484676  0.15262982  0.98753419  1
  C  C242  1  0.61963147  0.96100741  0.18559141  1
  C  C243  1  0.73329720  0.93106678  0.22371786  1
  O  O244  1  0.60446989  0.89373328  0.25013346  1
  C  C245  1  0.66202708  0.66078543  0.11060461  1
  O  O246  1  0.67286817  0.98225837  0.16683378  1
  C  C247  1  0.65152023  0.85464582  0.28812524  1
  H  H248  1  0.53981149  0.55701098  0.44363077  1
  C  C249  1  0.71555403  0.86046882  0.28525436  1
  H  H250  1  0.69812853  0.78255326  0.44405522  1
  C  C251  1  0.56100351  0.53421209  0.00544679  1
  H  H252  1  0.68445624  0.79988753  0.15294446  1
  H  H253  1  0.62873133  0.80143621  0.33222715  1
  C  C254  1  0.64445415  0.75134077  0.13551078  1
  H  H255  1  0.59828035  0.78470699  0.14054429  1
  H  H256  1  0.62098441  0.61196105  0.09686329  1
  H  H257  1  0.54223605  0.86347055  0.05486198  1
  O  O258  1  0.53990928  0.75360364  0.42344665  1
  C  C259  1  0.56630643  0.99987414  0.14918023  1
  H  H260  1  0.59074349  0.52818808  0.30107513  1
  C  C261  1  0.50296058  0.98193390  0.17966002  1
  H  H262  1  0.64866070  0.57626940  0.45720399  1
  C  C263  1  0.74483287  0.77310524  0.41662870  1
  C  C264  1  0.72963905  0.62803980  0.11002740  1
  H  H265  1  0.74898011  0.82905461  0.04778687  1
  C  C266  1  0.51173721  0.56582783  0.49732818  1
  C  C267  1  0.65759028  0.57052640  0.94181353  1
  H  H268  1  0.71515987  0.56201719  0.73551771  1
  H  H269  1  0.60287059  0.59013297  0.70807419  1
  C  C270  1  0.72130878  0.90573054  0.57465160  1
  C  C271  1  0.56967880  0.75389730  0.76450935  1
  C  C272  1  0.62727468  0.63133974  0.88464954  1
  H  H273  1  0.54061315  0.65034769  0.67621592  1
  C  C274  1  0.66327040  0.57588394  0.52039063  1
  C  C275  1  0.67701620  0.90102310  0.93382531  1
  C  C276  1  0.50506117  0.83729998  0.56956542  1
  C  C277  1  0.60692932  0.79823520  0.72358922  1
  C  C278  1  0.65965093  0.85901836  0.69142905  1
  C  C279  1  0.55062419  0.89633526  0.92166062  1
  C  C280  1  0.69585672  0.92561294  0.74042926  1
  C  C281  1  0.63613905  0.58312739  0.65893383  1
  C  C282  1  0.61815633  0.58507687  0.58048013  1
  C  C283  1  0.60855037  0.90581983  0.92670298  1
  C  C284  1  0.67412497  0.84953173  0.61000590  1
  H  H285  1  0.68531504  0.93982119  0.80181104  1
  H  H286  1  0.70872310  0.55784123  0.93925835  1
  C  C287  1  0.71602529  0.80902023  0.91722229  1
  C  C288  1  0.54738321  0.59516766  0.56658096  1
  H  H289  1  0.65391709  0.68035066  0.84272260  1
  H  H290  1  0.64897541  0.79407460  0.57647938  1
  H  H291  1  0.54273628  0.77889941  0.57576220  1
  C  C292  1  0.72646983  0.56871487  0.53498366  1
  C  C293  1  0.69794285  0.56761773  0.67498675  1
  C  C294  1  0.53280263  0.69899273  0.82177457  1
  C  C295  1  0.56021268  0.64500214  0.88224168  1
  H  H296  1  0.51156084  0.87032284  0.69050041  1
  C  C297  1  0.52751072  0.61179562  0.95892717  1
  H  H298  1  0.72426589  0.90573762  0.51132403  1
  C  C299  1  0.74228385  0.56667779  0.61504538  1
  C  C300  1  0.74712981  0.96568121  0.70290071  1
  C  C301  1  0.71385302  0.98960837  0.94745762  1
  H  H302  1  0.52262877  0.68217077  0.99495634  1
  C  C303  1  0.51164663  0.62227293  0.63030212  1
  C  C304  1  0.62371164  0.51413101  0.99735371  1
  H  H305  1  0.95587446  0.08902324  0.23331500  1
  C  C306  1  0.78856025  0.17925942  0.06073384  1
  C  C307  1  0.90908737  0.10129396  0.20587875  1
  H  H308  1  0.81410282  0.30577215  0.23349913  1
  C  C309  1  0.85140864  0.10924529  0.24721929  1
  O  O310  1  0.82238948  0.40295368  0.45659765  1
  C  C311  1  0.88475101  0.41694156  0.19574663  1
  O  O312  1  0.88488343  0.07028969  0.37495313  1
  C  C313  1  0.89892428  0.12968914  0.13116592  1
  O  O314  1  0.93678653  0.22456012  0.46508301  1
  C  C315  1  0.84809155  0.40878310  0.32696852  1
  C  C316  1  0.83008528  0.14416819  0.12315042  1
  H  H317  1  0.93600871  0.14443266  0.08799166  1
  C  C318  1  0.84086804  0.09498985  0.32967935  1
  H  H319  1  0.88244990  0.38497343  0.13759602  1
  C  C320  1  0.84445582  0.37258352  0.24934393  1
  C  C321  1  0.81239063  0.36579503  0.39034561  1
  O  O322  1  0.77616468  0.29219701  0.38292508  1
  Cu  Cu323  1  0.88243255  0.11368494  0.47831110  1
  O  O324  1  0.78364572  0.09913138  0.34828450  1
  C  C325  1  0.80080698  0.12632959  0.19447322  1
  Cu  Cu326  1  0.90955230  0.44724992  0.48248762  1
  C  C327  1  0.75165040  0.20553264  0.01154325  1
  Cu  Cu328  1  0.76270127  0.15971249  0.43817379  1
  O  O329  1  0.99704337  0.47837589  0.49651146  1
  H  H330  1  0.98563910  0.38782824  0.37847317  1
  H  H331  1  0.75106554  0.11932838  0.20995336  1
  C  C332  1  0.88492621  0.49917043  0.33710996  1
  O  O333  1  0.85305579  0.05600695  0.63710680  1
  H  H334  1  0.80558631  0.05108165  0.96600427  1
  O  O335  1  0.91577182  0.34311938  0.55585392  1
  C  C336  1  0.75697559  0.23442352  0.76110389  1
  H  H337  1  0.78970853  0.25414352  0.64649512  1
  C  C338  1  0.94802768  0.27063130  0.52757822  1
  H  H339  1  0.79270376  0.28353941  0.78372063  1
  H  H340  1  0.98030763  0.35853786  0.66698826  1
  C  C341  1  0.81972729  0.01193677  0.59470968  1
  H  H342  1  0.77564819  0.00990956  0.73992176  1
  C  C343  1  0.75434414  0.22240151  0.68370717  1
  H  H344  1  0.95728803  0.49397633  0.81001025  1
  H  H345  1  0.99423423  0.41192779  0.93052920  1
  O  O346  1  0.83316343  0.01460647  0.50596696  1
  C  C347  1  0.89241209  0.80958106  0.14319041  1
  C  C348  1  0.95177683  0.86072965  0.14360257  1
  C  C349  1  0.88723247  0.71502793  0.17854607  1
  O  O350  1  0.95873437  0.94291340  0.10988283  1
  C  C351  1  0.83221502  0.66434948  0.17052115  1
  H  H352  1  0.82734867  0.83130185  0.24855033  1
  O  O353  1  0.96533308  0.77833696  0.45018414  1
  H  H354  1  0.92428548  0.68269300  0.21537354  1
  C  C355  1  0.78043561  0.70738011  0.12962294  1
  C  C356  1  0.84424636  0.85157436  0.09703322  1
  C  C357  1  0.78743038  0.79758713  0.08560619  1
  H  H358  1  0.98508765  0.64836030  0.05990783  1
  H  H359  1  0.82581607  0.58917029  0.19461649  1
  H  H360  1  0.85623796  0.92031949  0.06464550  1
  C  C361  1  0.81870936  0.81122767  0.30770101  1
  C  C362  1  0.86879875  0.79234792  0.35443309  1
  H  H363  1  0.91604733  0.79430320  0.33007354  1
  C  C364  1  0.91331491  0.54653380  0.28997028  1
  C  C365  1  0.75768518  0.80660209  0.33972799  1
  H  H366  1  0.76394037  0.89241774  0.18109067  1
  C  C367  1  0.85649976  0.76010124  0.43094594  1
  C  C368  1  0.91047298  0.75971397  0.48424354  1
  H  H369  1  0.80454032  0.51899063  0.08169568  1
  H  H370  1  0.99469415  0.75876121  0.49528920  1
  C  C371  1  0.75063322  0.53459842  0.08547091  1
  C  C372  1  0.79513966  0.74181109  0.46126393  1
  O  O373  1  0.99862172  0.81890710  0.17873323  1
  C  C374  1  0.92587769  0.50479639  0.20991113  1
  C  C375  1  0.96444511  0.54698675  0.15421378  1
  H  H376  1  0.75833447  0.99382953  0.24440746  1
  Cu  Cu377  1  0.98963032  0.96272930  0.00811468  1
  H  H378  1  0.75932663  0.55310112  0.48718628  1
  C  C379  1  0.81308941  0.89422837  0.93232147  1
  Cu  Cu380  1  0.99656647  0.80362342  0.93010462  1
  O  O381  1  0.91108665  0.81254517  0.91454971  1
  C  C382  1  0.88182656  0.89148823  0.93159451  1
  Cu  Cu383  1  0.92907874  0.59344308  0.58587241  1
  O  O384  1  0.91170941  0.96914791  0.95479360  1
  O  O385  1  0.82329574  0.54722710  0.70755486  1
  H  H386  1  0.80646060  0.73174347  0.88951568  1
  C  C387  1  0.77789271  0.97985266  0.94990575  1
  C  C388  1  0.78334605  0.80120329  0.90819510  1
  H  H389  1  0.79376541  0.71720833  0.52275665  1
  C  C390  1  0.80927414  0.55674333  0.64162843  1
  O  O391  1  0.85009024  0.54889725  0.58302337  1
  O  O392  1  0.90817988  0.71773027  0.54966653  1
  H  H393  1  0.83499399  0.94112495  0.50388992  1
  O  O394  1  0.97670912  0.54753542  0.67676208  1
  C  C395  1  0.76203145  0.96306097  0.62425327  1
