# generated using pymatgen
data_CuH10C16(NO)4
_symmetry_space_group_name_H-M   'P 1'
_cell_length_a   23.30519923
_cell_length_b   12.49458554
_cell_length_c   12.87387872
_cell_angle_alpha   90.00000000
_cell_angle_beta   90.00000000
_cell_angle_gamma   90.00000000
_symmetry_Int_Tables_number   1
_chemical_formula_structural   CuH10C16(NO)4
_chemical_formula_sum   'Cu9 H90 C144 N36 O36'
_cell_volume   3748.72936530
_cell_formula_units_Z   9
loop_
 _symmetry_equiv_pos_site_id
 _symmetry_equiv_pos_as_xyz
  1  'x, y, z'
loop_
 _atom_site_type_symbol
 _atom_site_label
 _atom_site_symmetry_multiplicity
 _atom_site_fract_x
 _atom_site_fract_y
 _atom_site_fract_z
 _atom_site_occupancy
  C  C0  1  0.31185035  0.12574656  0.17931506  1
  C  C1  1  0.12992387  0.13782631  0.17402049  1
  N  N2  1  0.39498733  0.02738340  0.36260862  1
  N  N3  1  0.11476287  0.13241807  0.27120456  1
  H  H4  1  0.09436215  0.15688128  0.11388456  1
  C  C5  1  0.19272086  0.12420235  0.15924444  1
  N  N6  1  0.48567257  0.21999455  0.06690337  1
  C  C7  1  0.28164008  0.11681417  0.27296482  1
  C  C8  1  0.28212666  0.12399319  0.07916238  1
  C  C9  1  0.43454829  0.08697973  0.39788289  1
  H  H10  1  0.30412000  0.12425261  0.34989017  1
  H  H11  1  0.35835465  0.12593272  0.18424575  1
  N  N12  1  0.17993915  0.11769004  0.33622584  1
  C  C13  1  0.21934607  0.11260018  0.26437643  1
  C  C14  1  0.22355080  0.12819544  0.06449348  1
  H  H15  1  0.46814031  0.12691422  0.34821734  1
  H  H16  1  0.18467430  0.10549982  0.41192072  1
  H  H17  1  0.07777176  0.00891192  0.47985134  1
  H  H18  1  0.09395164  0.19650816  0.49431865  1
  O  O19  1  0.37948614  0.14938466  0.01782462  1
  O  O20  1  0.04048503  0.21199628  0.01219894  1
  C  C21  1  0.43097966  0.08476447  0.51438845  1
  H  H22  1  0.40281643  0.03961042  0.81555141  1
  C  C23  1  0.40713706  0.05784817  0.72898803  1
  Cu  Cu24  1  0.10597182  0.11042692  0.76853779  1
  C  C25  1  0.45511393  0.11690139  0.68980105  1
  C  C26  1  0.46805324  0.13374833  0.58555743  1
  C  C27  1  0.01531074  0.02703334  0.64302466  1
  C  C28  1  0.49087768  0.16343827  0.77653769  1
  C  C29  1  0.32360057  0.13915303  0.99325583  1
  O  O30  1  0.47293630  0.14091502  0.87401402  1
  C  C31  1  0.38124826  0.02068098  0.55003366  1
  O  O32  1  0.06951531  0.06034992  0.65249769  1
  O  O33  1  0.30856493  0.14133413  0.90512802  1
  O  O34  1  0.15917409  0.21407623  0.65747364  1
  C  C35  1  0.36917171  0.01254111  0.65773412  1
  H  H36  1  0.20164930  0.13009357  0.98711032  1
  C  C37  1  0.04345559  0.22358513  0.92121318  1
  O  O38  1  0.09115603  0.21018114  0.86424725  1
  Cu  Cu39  1  0.42829694  0.24271770  0.94741865  1
  C  C40  1  0.37161278  0.46228645  0.20536606  1
  O  O41  1  0.39748826  0.35321511  0.01914873  1
  H  H42  1  0.33536292  0.48746305  0.36780943  1
  C  C43  1  0.03319766  0.30508246  0.43536969  1
  C  C44  1  0.21829157  0.43492189  0.33414959  1
  H  H45  1  0.16887815  0.35168001  0.21570519  1
  C  C46  1  0.01799163  0.41501171  0.44001274  1
  C  C47  1  0.42101976  0.44204904  0.03203371  1
  C  C48  1  0.21249858  0.35992947  0.42468731  1
  H  H49  1  0.35394553  0.38060089  0.20007088  1
  C  C50  1  0.19177979  0.42660273  0.23936668  1
  H  H51  1  0.01571856  0.25742200  0.37548530  1
  H  H52  1  0.49163790  0.35137275  0.15299968  1
  H  H53  1  0.18868833  0.28249483  0.42856396  1
  O  O54  1  0.15949489  0.42584358  0.01471690  1
  O  O55  1  0.37452789  0.49383060  0.78034304  1
  C  C56  1  0.08514690  0.45174002  0.58567207  1
  C  C57  1  0.07555702  0.27652934  0.50533345  1
  Cu  Cu58  1  0.16006255  0.39222213  0.87188462  1
  H  H59  1  0.48215478  0.44278525  0.76153355  1
  C  C60  1  0.10012600  0.34394384  0.58301757  1
  C  C61  1  0.48233670  0.48916963  0.68969498  1
  H  H62  1  0.01984530  0.40306064  0.86731254  1
  O  O63  1  0.16473437  0.36974605  0.72940386  1
  C  C64  1  0.14445565  0.30528985  0.66120049  1
  C  C65  1  0.04368269  0.47068041  0.83279759  1
  H  H66  1  0.04012610  0.25836108  0.71320756  1
  N  N67  1  0.09660358  0.49737976  0.84869515  1
  O  O68  1  0.45191066  0.48595707  0.95929833  1
  C  C69  1  0.04725426  0.49453324  0.50732609  1
  N  N70  1  0.23631261  0.40543782  0.50084856  1
  C  C71  1  0.15432155  0.68648488  0.37666419  1
  H  H72  1  0.09076662  0.56402491  0.34015364  1
  C  C73  1  0.43590675  0.60122675  0.13044055  1
  H  H74  1  0.17581434  0.64130701  0.44082652  1
  C  C75  1  0.10611570  0.64649794  0.32314122  1
  H  H76  1  0.39854558  0.59926805  0.49879475  1
  H  H77  1  0.46423534  0.62770392  0.06557065  1
  H  H78  1  0.35604292  0.71366943  0.43826908  1
  H  H79  1  0.24608592  0.66370776  0.12843440  1
  H  H80  1  0.01175244  0.64794658  0.15917884  1
  C  C81  1  0.23901478  0.60019282  0.18717168  1
  N  N82  1  0.03784973  0.70809432  0.18424606  1
  C  C83  1  0.40733823  0.50260784  0.12526648  1
  C  C84  1  0.42601986  0.66760076  0.21702743  1
  C  C85  1  0.38567914  0.62390241  0.29832695  1
  N  N86  1  0.37941056  0.70020902  0.36976194  1
  C  C87  1  0.26074174  0.61722103  0.28803998  1
  C  C88  1  0.08091953  0.71790287  0.24805699  1
  C  C89  1  0.36177769  0.51838978  0.29834523  1
  C  C90  1  0.49228077  0.59226530  0.49051462  1
  H  H91  1  0.29083304  0.68545379  0.30684810  1
  H  H92  1  0.37057105  0.71297441  0.04436334  1
  H  H93  1  0.49664789  0.62999691  0.41276987  1
  N  N94  1  0.26266455  0.53036362  0.46261605  1
  C  C95  1  0.18403473  0.51159053  0.05854068  1
  C  C96  1  0.24995352  0.53388291  0.36270960  1
  C  C97  1  0.20303568  0.50895211  0.16885563  1
  C  C98  1  0.02231542  0.60244194  0.49630136  1
  O  O99  1  0.19333049  0.58960590  0.00651675  1
  C  C100  1  0.02062645  0.56506393  0.77149319  1
  C  C101  1  0.43829399  0.57396990  0.53336742  1
  N  N102  1  0.35559865  0.69414598  0.86340825  1
  O  O103  1  0.46763769  0.70126234  0.89871417  1
  H  H104  1  0.13759695  0.67100279  0.83926886  1
  H  H105  1  0.31093998  0.72319226  0.72526448  1
  Cu  Cu106  1  0.42430755  0.58586002  0.85445068  1
  O  O107  1  0.33634884  0.55043683  0.63338895  1
  C  C108  1  0.05719364  0.65880516  0.76414398  1
  N  N109  1  0.10909854  0.62357270  0.79830010  1
  H  H110  1  0.03151523  0.68304220  0.53307380  1
  C  C111  1  0.31486230  0.73566213  0.81234779  1
  C  C112  1  0.37780595  0.51876751  0.68359939  1
  H  H113  1  0.28532240  0.56039686  0.52251417  1
  H  H114  1  0.10153629  0.50110134  0.65462032  1
  C  C115  1  0.43495194  0.52440262  0.63178309  1
  N  N116  1  0.34051972  0.73362648  0.99100226  1
  H  H117  1  0.26927492  0.81661453  0.15997895  1
  C  C118  1  0.44791169  0.76801038  0.24747117  1
  H  H119  1  0.41945859  0.87648331  0.37105553  1
  O  O120  1  0.25210088  0.91084220  0.39033740  1
  N  N121  1  0.03614091  0.82781221  0.11213153  1
  C  C122  1  0.25599044  0.82629567  0.07947905  1
  C  C123  1  0.10480864  0.82695001  0.22688564  1
  H  H124  1  0.08365470  0.97101070  0.11477973  1
  C  C125  1  0.07498295  0.89027355  0.14637104  1
  C  C126  1  0.20473923  0.87695265  0.04883304  1
  N  N127  1  0.42232059  0.80262892  0.33247755  1
  H  H128  1  0.17206389  0.93996225  0.26367784  1
  H  H129  1  0.17304100  0.90922994  0.11198338  1
  C  C130  1  0.15435726  0.85997329  0.27870918  1
  C  C131  1  0.22855488  0.82456109  0.41948055  1
  H  H132  1  0.31772286  0.95936862  0.43141072  1
  H  H133  1  0.05513963  0.94231074  0.30607845  1
  C  C134  1  0.17704824  0.78739096  0.35070313  1
  N  N135  1  0.35420573  0.98823657  0.46334183  1
  H  H136  1  0.48000623  0.81320879  0.20063960  1
  C  C137  1  0.03562388  0.98432391  0.46472212  1
  C  C138  1  0.02224647  0.95004740  0.36505977  1
  O  O139  1  0.24600173  0.77156581  0.49119251  1
  H  H140  1  0.32682202  0.97972433  0.68779687  1
  C  C141  1  0.19509545  0.88809052  0.93886509  1
  O  O142  1  0.43759311  0.86770075  0.87315057  1
  H  H143  1  0.06910011  0.82780896  0.71014221  1
  C  C144  1  0.22910578  0.86015860  0.85371195  1
  C  C145  1  0.47496905  0.80288034  0.86725574  1
  H  H146  1  0.21899469  0.86866048  0.76671508  1
  O  O147  1  0.13849221  0.98244487  0.81036546  1
  C  C148  1  0.27649266  0.80014570  0.88424113  1
  C  C149  1  0.14461654  0.95165899  0.90737718  1
  C  C150  1  0.29112468  0.78580297  0.99327559  1
  H  H151  1  0.49788521  0.99322135  0.77595252  1
  O  O152  1  0.11580437  0.99043238  0.97428105  1
  C  C153  1  0.03946448  0.75851564  0.71812351  1
  O  O154  1  0.88907027  0.11387392  0.17341055  1
  C  C155  1  0.71152016  0.20794251  0.04090622  1
  C  C156  1  0.70235211  0.01910161  0.14223852  1
  C  C157  1  0.54421362  0.08693789  0.15638167  1
  H  H158  1  0.89776406  0.10619508  0.37469247  1
  H  H159  1  0.93850574  0.02810328  0.11367345  1
  C  C160  1  0.59987607  0.01758901  0.29628551  1
  C  C161  1  0.56585527  0.20412642  0.30977675  1
  C  C162  1  0.53972776  0.18844291  0.21434274  1
  H  H163  1  0.70544637  0.03329319  0.22516128  1
  C  C164  1  0.59723109  0.11726772  0.34742512  1
  C  C165  1  0.69892515  0.09857313  0.05241616  1
  C  C166  1  0.85159097  0.18093011  0.18879227  1
  C  C167  1  0.62789676  0.12816030  0.44830596  1
  C  C168  1  0.86138046  0.16117904  0.38563250  1
  O  O169  1  0.82665085  0.22671682  0.11573135  1
  C  C170  1  0.83330907  0.20799585  0.30160857  1
  N  N171  1  0.50940613  0.08944857  0.07108040  1
  H  H172  1  0.84424102  0.14005043  0.00870843  1
  O  O173  1  0.63090616  0.21133709  0.49367819  1
  C  C174  1  0.84711998  0.18500508  0.48979316  1
  O  O175  1  0.65248883  0.04060407  0.48378633  1
  O  O176  1  0.98356261  0.03057033  0.71717583  1
  C  C177  1  0.68054042  0.03713901  0.96225025  1
  C  C178  1  0.82307950  0.06579805  0.86054536  1
  H  H179  1  0.78756687  0.12107796  0.84875696  1
  C  C180  1  0.67716651  0.08589967  0.85973347  1
  Cu  Cu181  1  0.70879591  0.04795674  0.58465742  1
  H  H182  1  0.68585015  0.22644666  0.77101296  1
  C  C183  1  0.85366530  0.06945418  0.95091891  1
  O  O184  1  0.75999405  0.03815692  0.68519795  1
  C  C185  1  0.68709051  0.19342324  0.85012369  1
  H  H186  1  0.66464305  0.03434627  0.79093202  1
  H  H187  1  0.87010612  0.15285120  0.55848394  1
  H  H188  1  0.58761088  0.05761443  0.69329190  1
  O  O189  1  0.53542704  0.20399318  0.75783874  1
  H  H190  1  0.50032421  0.18943510  0.56117092  1
  H  H191  1  0.51839657  0.06102370  0.99758487  1
  C  C192  1  0.76789712  0.30399254  0.41560881  1
  H  H193  1  0.56806818  0.28075534  0.34795403  1
  C  C194  1  0.72578349  0.38628208  0.44483344  1
  H  H195  1  0.76992456  0.31332920  0.24542047  1
  H  H196  1  0.69673891  0.43892202  0.39340723  1
  C  C197  1  0.78660168  0.27678708  0.31546399  1
  O  O198  1  0.72092139  0.42650439  0.01189683  1
  H  H199  1  0.94740663  0.44856016  0.32856962  1
  C  C200  1  0.50027373  0.26031111  0.15236343  1
  H  H201  1  0.71837672  0.25896560  0.10921526  1
  N  N202  1  0.97877562  0.46521638  0.38534509  1
  O  O203  1  0.93392786  0.46957238  0.19739578  1
  H  H204  1  0.94182440  0.27506957  0.00095012  1
  C  C205  1  0.53675429  0.49503504  0.64560039  1
  N  N206  1  0.81624435  0.42518776  0.82712710  1
  N  N207  1  0.78455453  0.31389424  0.58718640  1
  H  H208  1  0.60665633  0.43913417  0.76835233  1
  H  H209  1  0.82650854  0.37840120  0.98732956  1
  H  H210  1  0.95842814  0.33041460  0.60832062  1
  C  C211  1  0.95435717  0.31627361  0.69375429  1
  C  C212  1  0.94447309  0.28244752  0.91457043  1
  H  H213  1  0.84883209  0.44700357  0.65090287  1
  C  C214  1  0.84471224  0.37960949  0.90553239  1
  C  C215  1  0.90442255  0.34677332  0.74807046  1
  C  C216  1  0.89941525  0.33259822  0.86538410  1
  H  H217  1  0.79752527  0.30885752  0.66110766  1
  N  N218  1  0.86139642  0.41004333  0.72101698  1
  O  O219  1  0.70487944  0.42084591  0.83962665  1
  N  N220  1  0.73307569  0.40378004  0.53865268  1
  C  C221  1  0.59497068  0.47220996  0.68790778  1
  C  C222  1  0.71210448  0.37345217  0.93611182  1
  C  C223  1  0.70318072  0.25332260  0.94241937  1
  H  H224  1  0.94496197  0.49374603  0.71060616  1
  C  C225  1  0.99370378  0.26029304  0.85835887  1
  C  C226  1  0.99879809  0.27142029  0.75095632  1
  C  C227  1  0.80281294  0.26364542  0.50352920  1
  Cu  Cu228  1  0.92401263  0.70341642  0.37491185  1
  O  O229  1  0.89131650  0.58635667  0.30261103  1
  H  H230  1  0.62135019  0.61179953  0.47963557  1
  C  C231  1  0.83932694  0.69322000  0.15279697  1
  C  C232  1  0.87887080  0.61287424  0.12288099  1
  C  C233  1  0.69819259  0.58954398  0.19408105  1
  C  C234  1  0.74209231  0.56952538  0.26828005  1
  C  C235  1  0.73993973  0.62693407  0.36437453  1
  C  C236  1  0.65751587  0.66724032  0.21614357  1
  H  H237  1  0.69801675  0.55097403  0.11395129  1
  C  C238  1  0.90234436  0.54366908  0.21097005  1
  H  H239  1  0.81456304  0.60349235  0.46938543  1
  N  N240  1  0.77351070  0.62648981  0.44490075  1
  C  C241  1  0.89053869  0.58948223  0.01714432  1
  C  C242  1  0.64688694  0.71783314  0.30991219  1
  H  H243  1  0.77409292  0.50959074  0.24605668  1
  N  N244  1  0.98126486  0.59693264  0.42837828  1
  C  C245  1  0.69025266  0.70248334  0.38448478  1
  C  C246  1  0.60621136  0.67140685  0.13274824  1
  O  O247  1  0.61224895  0.63107922  0.04504900  1
  C  C248  1  0.69190600  0.73755764  0.49316580  1
  H  H249  1  0.83336064  0.71764391  0.23598158  1
  O  O250  1  0.56138810  0.72013726  0.15931955  1
  C  C251  1  0.66857547  0.71184241  0.74153665  1
  C  C252  1  0.86314982  0.63609661  0.82522121  1
  N  N253  1  0.70606480  0.65043662  0.72976137  1
  H  H254  1  0.56566992  0.67928240  0.83849171  1
  O  O255  1  0.87459388  0.56765547  0.60753368  1
  Cu  Cu256  1  0.78136189  0.70328219  0.65899095  1
  H  H257  1  0.88792620  0.57960403  0.77333375  1
  C  C258  1  0.97104733  0.56741328  0.71097946  1
  C  C259  1  0.86042763  0.64686646  0.94092729  1
  C  C260  1  0.90230507  0.64799454  0.59176976  1
  N  N261  1  0.81893717  0.68615694  0.78807593  1
  Cu  Cu262  1  0.71562389  0.52088007  0.63235492  1
  C  C263  1  0.95411987  0.66012956  0.65847509  1
  N  N264  1  0.74086717  0.71124650  0.53360057  1
  O  O265  1  0.89040043  0.70784130  0.51354587  1
  Cu  Cu266  1  0.75545150  0.53353349  0.81063476  1
  C  C267  1  0.81469273  0.72414126  0.97279300  1
  N  N268  1  0.59715154  0.56348205  0.52477935  1
  N  N269  1  0.63401443  0.50710988  0.62912208  1
  C  C270  1  0.54162530  0.55234892  0.54623041  1
  N  N271  1  0.78255957  0.74293026  0.89157174  1
  H  H272  1  0.92220770  0.52826956  0.99397665  1
  H  H273  1  0.61988510  0.95741697  0.33945300  1
  N  N274  1  0.93096730  0.97887308  0.05273813  1
  C  C275  1  0.85715888  0.89382076  0.39243551  1
  H  H276  1  0.81656683  0.87824023  0.42895141  1
  C  C277  1  0.96327056  0.91951374  0.35117919  1
  H  H278  1  0.94707526  0.88140817  0.19056052  1
  N  N279  1  0.93620000  0.88403869  0.26673962  1
  N  N280  1  0.68651987  0.92693149  0.11887532  1
  N  N281  1  0.86624639  0.87049593  0.29595941  1
  C  C282  1  0.91525894  0.93171340  0.42908481  1
  H  H283  1  0.78650282  0.82616793  0.10855762  1
  H  H284  1  0.57563124  0.91923949  0.16925695  1
  N  N285  1  0.97530208  0.87451111  0.02406592  1
  H  H286  1  0.60889109  0.76990671  0.31881013  1
  C  C287  1  0.81330148  0.75675528  0.07992027  1
  C  C288  1  0.57443507  0.99878815  0.20251209  1
  C  C289  1  0.62432206  0.78930684  0.75669471  1
  N  N290  1  0.67256639  0.92105284  0.65113474  1
  H  H291  1  0.70104484  0.85889680  0.65265248  1
  C  C292  1  0.62672921  0.89728454  0.70204609  1
  C  C293  1  0.53476997  0.93613984  0.76811199  1
  C  C294  1  0.87842311  0.90664259  0.80604589  1
  C  C295  1  0.52936553  0.83389679  0.81778879  1
  C  C296  1  0.58093885  0.97500144  0.71729153  1
  H  H297  1  0.88891497  0.84657236  0.74291718  1
  C  C298  1  0.93386660  0.95995132  0.52890467  1
  H  H299  1  0.75056280  0.79191516  0.86804618  1
  H  H300  1  0.98129684  0.76341297  0.89795615  1
  C  C301  1  0.91030640  0.90099361  0.89799983  1
  C  C302  1  0.95902420  0.83922860  0.93711483  1
  O  O303  1  0.80437783  0.88970812  0.63470717  1
  C  C304  1  0.83446251  0.97767567  0.78904365  1
  H  H305  1  0.66025874  0.78590372  0.54033059  1
  C  C306  1  0.79766757  0.96259048  0.69578389  1
  H  H307  1  0.97091790  0.83284188  0.63690129  1
  C  C308  1  0.99193242  0.98649292  0.54063944  1
  H  H309  1  0.90135168  0.96754720  0.59018675  1
  H  H310  1  0.64904321  0.87097054  0.96486761  1
  C  C311  1  0.89699991  0.99021180  0.97211988  1
  C  C312  1  0.57410425  0.76018618  0.80682953  1
  C  C313  1  0.98556648  0.75694111  0.67094718  1
  N  N314  1  0.67341796  0.93340214  0.99018529  1
