# generated using pymatgen
data_ZnH6(CN2)4
_symmetry_space_group_name_H-M   'P 1'
_cell_length_a   34.80605757
_cell_length_b   11.21700669
_cell_length_c   10.09129530
_cell_angle_alpha   90.00000000
_cell_angle_beta   90.00000000
_cell_angle_gamma   90.00000000
_symmetry_Int_Tables_number   1
_chemical_formula_structural   ZnH6(CN2)4
_chemical_formula_sum   'Zn16 H96 C64 N128'
_cell_volume   3939.84129770
_cell_formula_units_Z   16
loop_
 _symmetry_equiv_pos_site_id
 _symmetry_equiv_pos_as_xyz
  1  'x, y, z'
loop_
 _atom_site_type_symbol
 _atom_site_label
 _atom_site_symmetry_multiplicity
 _atom_site_fract_x
 _atom_site_fract_y
 _atom_site_fract_z
 _atom_site_occupancy
  C  C0  1  0.23314847  0.40587244  0.03167025  1
  N  N1  1  0.12027845  0.48790523  0.04782438  1
  N  N2  1  0.22529812  0.26012975  0.31700575  1
  N  N3  1  0.18045086  0.10012915  0.28211734  1
  H  H4  1  0.11691972  0.19123728  0.38170630  1
  H  H5  1  0.22062405  0.38934778  0.13250394  1
  C  C6  1  0.20831504  0.07536955  0.20037310  1
  N  N7  1  0.23520156  0.15323646  0.20246547  1
  N  N8  1  0.08953061  0.43535061  0.25764246  1
  N  N9  1  0.11781731  0.40597086  0.19636781  1
  N  N10  1  0.19435232  0.23180467  0.36391736  1
  H  H11  1  0.06472948  0.18666983  0.34630282  1
  H  H12  1  0.08077950  0.27121023  0.48024915  1
  C  C13  1  0.08722852  0.18474067  0.42853496  1
  H  H14  1  0.06472131  0.34060535  0.01099550  1
  N  N15  1  0.06729764  0.42393074  0.56321034  1
  N  N16  1  0.18904855  0.17508180  0.77876655  1
  H  H17  1  0.17052008  0.47081341  0.55935479  1
  C  C18  1  0.07982998  0.07141334  0.51333578  1
  N  N19  1  0.05218761  0.05811510  0.59510280  1
  N  N20  1  0.10781921  0.39376889  0.75116029  1
  N  N21  1  0.04997428  0.33293862  0.69446492  1
  H  H22  1  0.19973944  0.02250403  0.57992884  1
  Zn  Zn23  1  0.01275593  0.18330924  0.66796902  1
  C  C24  1  0.07453898  0.34289093  0.78853215  1
  Zn  Zn25  1  0.14868323  0.44551336  0.87873076  1
  N  N26  1  0.21723672  0.11867498  0.81629953  1
  C  C27  1  0.07215976  0.28239659  0.92326937  1
  H  H28  1  0.10108279  0.23747896  0.95053044  1
  N  N29  1  0.18958236  0.31376162  0.87012746  1
  N  N30  1  0.24207586  0.21500611  0.92065096  1
  H  H31  1  0.04771126  0.21693882  0.92380683  1
  C  C32  1  0.22047015  0.30891838  0.93949220  1
  H  H33  1  0.22331419  0.47198481  0.54092431  1
  C  C34  1  0.19835235  0.47349799  0.61115878  1
  H  H35  1  0.19962970  0.39071919  0.67009286  1
  H  H36  1  0.22018656  0.49246755  0.99522285  1
  N  N37  1  0.09966187  0.45211046  0.59344263  1
  H  H38  1  0.21426780  0.88006867  0.15512351  1
  N  N39  1  0.22600094  0.68900612  0.30323352  1
  Zn  Zn40  1  0.02063255  0.64005549  0.18935630  1
  N  N41  1  0.06772268  0.98943227  0.13193460  1
  N  N42  1  0.18758724  0.85222116  0.38283806  1
  N  N43  1  0.19588186  0.73485353  0.27069340  1
  C  C44  1  0.10195398  0.72399236  0.35773221  1
  N  N45  1  0.04531688  0.91477015  0.09085863  1
  N  N46  1  0.10110485  0.91609279  0.24160536  1
  N  N47  1  0.05507518  0.79129899  0.18080845  1
  C  C48  1  0.20666556  0.96478010  0.10754093  1
  Zn  Zn49  1  0.14316393  0.96865889  0.36164989  1
  C  C50  1  0.08521092  0.81389451  0.25325659  1
  H  H51  1  0.17726604  0.95714141  0.05994462  1
  H  H52  1  0.13407150  0.71567156  0.35202968  1
  N  N53  1  0.06704703  0.53120895  0.14685080  1
  C  C54  1  0.08988519  0.55804413  0.04948414  1
  H  H55  1  0.09574723  0.76877757  0.45430227  1
  N  N56  1  0.24121382  0.77357203  0.44405302  1
  H  H57  1  0.08853370  0.63248081  0.35464134  1
  C  C58  1  0.21577093  0.85712233  0.46504426  1
  N  N59  1  0.10324758  0.97732881  0.49482165  1
  H  H60  1  0.23033025  0.97104053  0.03022421  1
  H  H61  1  0.21882292  0.90897867  0.67212981  1
  N  N62  1  0.22857217  0.65900334  0.71543911  1
  C  C63  1  0.22191253  0.94965966  0.57427108  1
  C  C64  1  0.20149305  0.57763504  0.70845275  1
  N  N65  1  0.18768414  0.70950694  0.89985636  1
  N  N66  1  0.17731540  0.58178820  0.80804129  1
  N  N67  1  0.05940078  0.91956199  0.66579053  1
  N  N68  1  0.21654407  0.75367002  0.85195087  1
  H  H69  1  0.05068557  0.67135953  0.92897872  1
  H  H70  1  0.08357625  0.59019228  0.83776625  1
  N  N71  1  0.08661325  0.87114994  0.61045387  1
  C  C72  1  0.08149485  0.64316555  0.93314731  1
  H  H73  1  0.09846758  0.72877628  0.92572948  1
  C  C74  1  0.47413383  0.36456322  0.24028113  1
  Zn  Zn75  1  0.27845124  0.15349458  0.06437570  1
  N  N76  1  0.36877812  0.30087431  0.26500932  1
  N  N77  1  0.32293027  0.24605549  0.13365531  1
  C  C78  1  0.32850267  0.13767317  0.35266264  1
  Zn  Zn79  1  0.39597637  0.34441609  0.44366015  1
  C  C80  1  0.33985798  0.22880279  0.24727454  1
  N  N81  1  0.46941803  0.03302884  0.42211758  1
  C  C82  1  0.46838812  0.45378088  0.33552405  1
  H  H83  1  0.49910516  0.36946398  0.17619634  1
  H  H84  1  0.35368882  0.12186446  0.41298528  1
  H  H85  1  0.26477758  0.41316270  0.03555207  1
  H  H86  1  0.30557953  0.17344551  0.41611356  1
  H  H87  1  0.45503596  0.28480445  0.24291542  1
  N  N88  1  0.37517737  0.38251740  0.12055091  1
  N  N89  1  0.43955288  0.07601693  0.37655141  1
  N  N90  1  0.43895707  0.46786927  0.41724467  1
  H  H91  1  0.31745723  0.04792181  0.31112751  1
  N  N92  1  0.43441853  0.20670462  0.46611797  1
  N  N93  1  0.34999461  0.34955414  0.04472945  1
  N  N94  1  0.28986717  0.39171380  0.66307397  1
  N  N95  1  0.31811412  0.32909396  0.64563381  1
  H  H96  1  0.37343922  0.03769830  0.83975235  1
  H  H97  1  0.32978047  0.11837676  0.85399022  1
  H  H98  1  0.49437018  0.35663048  0.62496842  1
  H  H99  1  0.47607720  0.26540778  0.76136386  1
  C  C100  1  0.46346031  0.21013446  0.55270663  1
  N  N101  1  0.48742778  0.12214226  0.54346142  1
  C  C102  1  0.46957301  0.30606677  0.65941922  1
  C  C103  1  0.34145213  0.02238558  0.84784442  1
  N  N104  1  0.48903604  0.03796849  0.81681522  1
  H  H105  1  0.44619019  0.37220400  0.66894450  1
  N  N106  1  0.46837232  0.12038327  0.94204597  1
  N  N107  1  0.44108753  0.06116038  0.98607934  1
  N  N108  1  0.34910728  0.40405395  0.54304812  1
  N  N109  1  0.29928521  0.87801738  0.17474261  1
  N  N110  1  0.38238742  0.71945275  0.13292129  1
  N  N111  1  0.32800586  0.81407186  0.16681154  1
  C  C112  1  0.35299876  0.61050731  0.44636505  1
  H  H113  1  0.42422634  0.59977300  0.16852371  1
  C  C114  1  0.47737453  0.69397232  0.04879203  1
  N  N115  1  0.39770618  0.63882176  0.19901905  1
  N  N116  1  0.49507785  0.54007466  0.35005766  1
  N  N117  1  0.47821447  0.63502597  0.46886250  1
  N  N118  1  0.35187008  0.86608054  0.02154668  1
  C  C119  1  0.47386016  0.79272092  0.15019350  1
  N  N120  1  0.30148905  0.98090622  0.04486223  1
  H  H121  1  0.33803366  0.64510527  0.35528064  1
  H  H122  1  0.47467384  0.75455072  0.25066736  1
  H  H123  1  0.38010003  0.57669811  0.40286750  1
  H  H124  1  0.49870655  0.85748174  0.14648882  1
  H  H125  1  0.44522630  0.83910002  0.14495479  1
  N  N126  1  0.29985618  0.52493343  0.57705518  1
  N  N127  1  0.46366415  0.56006047  0.86140249  1
  H  H128  1  0.46274138  0.87756294  0.60925793  1
  C  C129  1  0.32604200  0.64322656  0.85189711  1
  N  N130  1  0.34772220  0.86389479  0.56232230  1
  N  N131  1  0.32153260  0.75782893  0.64766383  1
  N  N132  1  0.44829678  0.59114588  0.51246458  1
  N  N133  1  0.37633213  0.77984601  0.75729359  1
  C  C134  1  0.34275724  0.72730599  0.74580567  1
  H  H135  1  0.31792084  0.56076475  0.79866106  1
  N  N136  1  0.37881062  0.87191987  0.61600767  1
  H  H137  1  0.46932965  0.75092046  0.72457069  1
  C  C138  1  0.47878341  0.84837124  0.69869532  1
  Zn  Zn139  1  0.27184851  0.68252797  0.58620023  1
  H  H140  1  0.30008819  0.68950938  0.90296436  1
  H  H141  1  0.34712845  0.61924464  0.92657897  1
  Zn  Zn142  1  0.40432672  0.80004044  0.93619770  1
  N  N143  1  0.49261291  0.52082459  0.91301513  1
  N  N144  1  0.44093075  0.93152766  0.89359482  1
  C  C145  1  0.46866898  0.93709254  0.80853644  1
  N  N146  1  0.44996734  0.68114522  0.96056910  1
  H  H147  1  0.25171167  0.98461429  0.57780026  1
  H  H148  1  0.32954778  0.97124055  0.76236198  1
  H  H149  1  0.35924988  0.68671449  0.51865029  1
  C  C150  1  0.32958497  0.94842710  0.97291925  1
  C  C151  1  0.33325639  0.51003207  0.52629301  1
  N  N152  1  0.71616475  0.19084297  0.49197893  1
  H  H153  1  0.67416657  0.49028993  0.24879998  1
  N  N154  1  0.59470514  0.32195967  0.21042357  1
  N  N155  1  0.74807318  0.21398147  0.05088442  1
  C  C156  1  0.71399757  0.02138131  0.32978015  1
  C  C157  1  0.74100096  0.43030276  0.04979878  1
  H  H158  1  0.63047143  0.08514076  0.43008291  1
  H  H159  1  0.71980111  0.49888863  0.02234100  1
  N  N160  1  0.61991018  0.28312644  0.13746320  1
  N  N161  1  0.72922404  0.13176312  0.34184245  1
  C  C162  1  0.60118884  0.06342878  0.44914216  1
  C  C163  1  0.60304753  0.48057036  0.05357341  1
  N  N164  1  0.62688566  0.39636156  0.02246751  1
  H  H165  1  0.74297557  0.43249695  0.15644810  1
  H  H166  1  0.58856230  0.01456186  0.35763641  1
  N  N167  1  0.58200397  0.45653370  0.15637471  1
  H  H168  1  0.58564870  0.14891292  0.47379450  1
  C  C169  1  0.73010260  0.38992112  0.62060501  1
  Zn  Zn170  1  0.66245922  0.39405546  0.85297043  1
  N  N171  1  0.55892551  0.24551524  0.70454400  1
  N  N172  1  0.61217643  0.34347132  0.75195625  1
  C  C173  1  0.59579743  0.16326385  0.89576186  1
  H  H174  1  0.59801338  0.07171399  0.85964197  1
  N  N175  1  0.59217682  0.42190938  0.62499804  1
  Zn  Zn176  1  0.52830855  0.09163051  0.68225034  1
  C  C177  1  0.58907933  0.25610759  0.78503664  1
  N  N178  1  0.70200052  0.27580293  0.92125512  1
  H  H179  1  0.73324284  0.31139098  0.68008038  1
  N  N180  1  0.56360914  0.36607780  0.59062369  1
  H  H181  1  0.62406861  0.18268565  0.93680229  1
  N  N182  1  0.73558100  0.08910260  0.96018530  1
  N  N183  1  0.71164305  0.12841803  0.88407263  1
  N  N184  1  0.69445416  0.11893590  0.54360310  1
  H  H185  1  0.57407991  0.16406312  0.97992237  1
  H  H186  1  0.70692265  0.37862951  0.54183403  1
  C  C187  1  0.72590369  0.49782397  0.71725378  1
  C  C188  1  0.73134985  0.30559580  0.99834786  1
  C  C189  1  0.59600867  0.72348255  0.32162909  1
  N  N190  1  0.70706522  0.71748550  0.43846038  1
  N  N191  1  0.57548874  0.83928324  0.13252896  1
  Zn  Zn192  1  0.66169615  0.84094911  0.44353520  1
  N  N193  1  0.60379833  0.89027708  0.17343916  1
  N  N194  1  0.50224124  0.60584362  0.05248751  1
  H  H195  1  0.73725367  0.93565772  0.15259482  1
  N  N196  1  0.70469955  0.59193956  0.35067075  1
  N  N197  1  0.62010743  0.80879555  0.31234909  1
  N  N198  1  0.56891455  0.71432957  0.23824474  1
  N  N199  1  0.69187735  0.99772896  0.43971794  1
  C  C200  1  0.59793798  0.64144801  0.44589366  1
  H  H201  1  0.69499807  0.85675359  0.23898418  1
  H  H202  1  0.56932015  0.62844191  0.49721568  1
  N  N203  1  0.67312881  0.56906102  0.30151551  1
  Zn  Zn204  1  0.53640326  0.56670401  0.20939459  1
  C  C205  1  0.71524920  0.93088774  0.23600422  1
  H  H206  1  0.59325704  0.67354856  0.03735322  1
  H  H207  1  0.60940970  0.55054921  0.43055236  1
  N  N208  1  0.70852500  0.65161380  0.88659948  1
  N  N209  1  0.56891479  0.97495375  0.64962557  1
  N  N210  1  0.61088382  0.81670699  0.72174741  1
  C  C211  1  0.74886290  0.84185009  0.58532635  1
  C  C212  1  0.59778122  0.97749542  0.56696936  1
  N  N213  1  0.62304377  0.89247579  0.58140246  1
  N  N214  1  0.58121937  0.85993216  0.76348571  1
  H  H215  1  0.50961351  0.83498048  0.67242963  1
  H  H216  1  0.62495223  0.61045262  0.91217638  1
  C  C217  1  0.59875697  0.59664533  0.97040547  1
  H  H218  1  0.57514038  0.59272550  0.89209405  1
  N  N219  1  0.69634369  0.52764297  0.78887363  1
  H  H220  1  0.72573365  0.90357671  0.60984076  1
  N  N221  1  0.74147583  0.67590609  0.85913424  1
  H  H222  1  0.61886183  0.68535532  0.51789594  1
  C  C223  1  0.73871308  0.73133262  0.50168424  1
  H  H224  1  0.79090143  0.21389136  0.49924079  1
  Zn  Zn225  1  0.77110857  0.19988239  0.24143521  1
  C  C226  1  0.83649011  0.07294950  0.09544460  1
  C  C227  1  0.94372795  0.46173767  0.26671373  1
  H  H228  1  0.91526899  0.46333295  0.21594943  1
  N  N229  1  0.79964604  0.49097430  0.21709297  1
  N  N230  1  0.79280487  0.36236580  0.31008141  1
  H  H231  1  0.94657994  0.37120802  0.31598350  1
  N  N232  1  0.95296506  0.16119875  0.04035943  1
  N  N233  1  0.82433792  0.48761451  0.44266684  1
  C  C234  1  0.81232250  0.37619627  0.41633695  1
  N  N235  1  0.82255968  0.11152186  0.20804437  1
  N  N236  1  0.84079148  0.00902224  0.33001177  1
  N  N237  1  0.92990706  0.15185539  0.48728637  1
  N  N238  1  0.90224935  0.21852827  0.47002948  1
  H  H239  1  0.96577365  0.45881741  0.18993768  1
  H  H240  1  0.85310544  0.30531061  0.07796657  1
  H  H241  1  0.76843359  0.47056338  0.00336159  1
  H  H242  1  0.84279412  0.22267904  0.48109864  1
  N  N243  1  0.93865720  0.04465815  0.94128888  1
  H  H244  1  0.81971110  0.20869685  0.94555252  1
  C  C245  1  0.96208438  0.03742443  0.84014879  1
  H  H246  1  0.99742215  0.45500240  0.61910893  1
  H  H247  1  0.79960017  0.05209641  0.92163936  1
  C  C248  1  0.96845857  0.44466931  0.66028653  1
  N  N249  1  0.98516885  0.12766390  0.83513417  1
  C  C250  1  0.94717736  0.34229124  0.59660923  1
  N  N251  1  0.96193295  0.23741554  0.58005775  1
  H  H252  1  0.84801730  0.08426806  0.88393826  1
  H  H253  1  0.88945500  0.35430766  0.93984845  1
  N  N254  1  0.83266966  0.40009089  0.91298079  1
  N  N255  1  0.84771782  0.49929282  0.70644567  1
  C  C256  1  0.86038007  0.35630161  0.98416672  1
  C  C257  1  0.84983635  0.44733788  0.80474008  1
  C  C258  1  0.82544610  0.11038078  0.95488759  1
  H  H259  1  0.97183088  0.42785705  0.77085114  1
  H  H260  1  0.82078724  0.30565793  0.62214380  1
  N  N261  1  0.91111031  0.34739111  0.55125623  1
  N  N262  1  0.97901505  0.20978507  0.98199884  1
  H  H263  1  0.75739425  0.40781334  0.56475570  1
  C  C264  1  0.81652853  0.27319502  0.51253079  1
  N  N265  1  0.97530973  0.67046447  0.06510059  1
  H  H266  1  0.94132428  0.93172022  0.16820995  1
  N  N267  1  0.98602503  0.61562342  0.35422524  1
  H  H268  1  0.76987504  0.59335769  0.41245281  1
  N  N269  1  0.93111297  0.59937439  0.45855181  1
  C  C270  1  0.95235991  0.56889152  0.35635887  1
  H  H271  1  0.95793969  0.83016994  0.29174348  1
  C  C272  1  0.95332171  0.76345452  0.07914167  1
  H  H273  1  0.98894078  0.90382190  0.16149413  1
  N  N274  1  0.86378137  0.94562840  0.27195109  1
  N  N275  1  0.86265911  0.98953301  0.10907584  1
  C  C276  1  0.96074914  0.85915969  0.18566516  1
  N  N277  1  0.81984311  0.55684791  0.28351862  1
  N  N278  1  0.76881658  0.66332641  0.47657919  1
  N  N279  1  0.98385801  0.73063437  0.47400640  1
  H  H280  1  0.81401529  0.74150667  0.02428879  1
  C  C281  1  0.82734037  0.69096409  0.93574036  1
  C  C282  1  0.83880818  0.76977619  0.81876693  1
  Zn  Zn283  1  0.88150953  0.51271490  0.53873756  1
  N  N284  1  0.85555185  0.85471112  0.60261793  1
  N  N285  1  0.86975234  0.93205842  0.67072468  1
  N  N286  1  0.75529498  0.56468361  0.73396257  1
  H  H287  1  0.93157568  0.87248382  0.77039144  1
  H  H288  1  0.95468277  0.53501094  0.64558851  1
  N  N289  1  0.92844440  0.63967868  0.90261348  1
  N  N290  1  0.83120508  0.74120637  0.69500494  1
  Zn  Zn291  1  0.80615072  0.59416752  0.61350385  1
  N  N292  1  0.85833424  0.86829734  0.83246390  1
  H  H293  1  0.76319158  0.81035852  0.67800722  1
  C  C294  1  0.95551750  0.93472734  0.74228018  1
  Zn  Zn295  1  0.89363141  0.91914847  0.96949651  1
  N  N296  1  0.95442372  0.71516392  0.53765231  1
  N  N297  1  0.95738363  0.58560581  0.93897790  1
  H  H298  1  0.85382664  0.64735638  0.97306850  1
  H  H299  1  0.80804900  0.61844810  0.90111083  1
  H  H300  1  0.94902203  0.97139721  0.63562130  1
  H  H301  1  0.98349634  0.88350871  0.74779602  1
  H  H302  1  0.77086376  0.89300870  0.53291406  1
  N  N303  1  0.92400450  0.76866512  0.99912466  1
