# generated using pymatgen
data_ZnH6(CN2)4
_symmetry_space_group_name_H-M   'P 1'
_cell_length_a   24.58427945
_cell_length_b   12.65867953
_cell_length_c   13.64840203
_cell_angle_alpha   90.00000000
_cell_angle_beta   90.00000000
_cell_angle_gamma   90.00000000
_symmetry_Int_Tables_number   1
_chemical_formula_structural   ZnH6(CN2)4
_chemical_formula_sum   'Zn16 H96 C64 N128'
_cell_volume   4247.44433469
_cell_formula_units_Z   16
loop_
 _symmetry_equiv_pos_site_id
 _symmetry_equiv_pos_as_xyz
  1  'x, y, z'
loop_
 _atom_site_type_symbol
 _atom_site_label
 _atom_site_symmetry_multiplicity
 _atom_site_fract_x
 _atom_site_fract_y
 _atom_site_fract_z
 _atom_site_occupancy
  H  H0  1  0.19844969  0.21581590  0.15618424  1
  H  H1  1  0.01768376  0.31666469  0.28024762  1
  C  C2  1  0.00772368  0.12814720  0.49077549  1
  C  C3  1  0.04406867  0.26044127  0.24416827  1
  H  H4  1  0.03896480  0.17708007  0.27624225  1
  N  N5  1  0.20795834  0.28976059  0.29944601  1
  Zn  Zn6  1  0.11807600  0.14095459  0.43820438  1
  N  N7  1  0.13845084  0.24305103  0.32034527  1
  H  H8  1  0.03134777  0.26618349  0.16487905  1
  N  N9  1  0.20396040  0.35650104  0.23782972  1
  N  N10  1  0.13393901  0.34999411  0.19648899  1
  C  C11  1  0.10695609  0.28712250  0.25373322  1
  Zn  Zn12  1  0.10252090  0.41201906  0.07139536  1
  C  C13  1  0.23427014  0.02930130  0.39092367  1
  H  H14  1  0.18753457  0.33650757  0.43705965  1
  C  C15  1  0.21352541  0.13404041  0.13619416  1
  N  N16  1  0.13596400  0.01648184  0.33978389  1
  H  H17  1  0.21784756  0.08247572  0.44639194  1
  N  N18  1  0.00873130  0.20511280  0.42955665  1
  C  C19  1  0.22476024  0.12762147  0.02344674  1
  N  N20  1  0.02937315  0.47712045  0.10457554  1
  H  H21  1  0.18070624  0.07383963  0.16008774  1
  N  N22  1  0.09151457  0.15770619  0.05312722  1
  H  H23  1  0.08986414  0.48342209  0.28837726  1
  H  H24  1  0.21133170  0.48743506  0.07672217  1
  N  N25  1  0.05052786  0.06842490  0.49706551  1
  N  N26  1  0.05110896  0.10896015  0.02290725  1
  C  C27  1  0.19433498  0.27420744  0.57984170  1
  C  C28  1  0.04623169  0.02515081  0.79272291  1
  C  C29  1  0.04177873  0.28137912  0.93867729  1
  N  N30  1  0.14408146  0.13848998  0.67595827  1
  N  N31  1  0.17152533  0.18482915  0.73724919  1
  H  H32  1  0.23725949  0.47713933  0.94916153  1
  N  N33  1  0.20682633  0.28033850  0.67266263  1
  N  N34  1  0.15849339  0.19543715  0.56294715  1
  H  H35  1  0.08288827  0.00781798  0.74449772  1
  H  H36  1  0.05473180  0.07836911  0.85502533  1
  H  H37  1  0.04378470  0.41385853  0.83894387  1
  C  C38  1  0.01738725  0.35779515  0.88549216  1
  N  N39  1  0.01715365  0.18872260  0.94549851  1
  N  N40  1  0.08660621  0.28064489  0.99595986  1
  H  H41  1  0.19390670  0.17063945  0.97792536  1
  H  H42  1  0.22038734  0.43349253  0.51882726  1
  C  C43  1  0.21571440  0.34749724  0.50023266  1
  H  H44  1  0.23375080  0.04377467  0.99903254  1
  C  C45  1  0.17172203  0.84128520  0.02527524  1
  H  H46  1  0.03381277  0.56554684  0.34815973  1
  N  N47  1  0.19185454  0.91544818  0.25729590  1
  C  C48  1  0.01924235  0.51613498  0.19371074  1
  N  N49  1  0.12335265  0.88986664  0.21448042  1
  H  H50  1  0.08779248  0.57920123  0.01867271  1
  C  C51  1  0.04874220  0.52374677  0.28046347  1
  C  C52  1  0.18607162  0.98395719  0.33027228  1
  N  N53  1  0.03402865  0.81491010  0.48221619  1
  H  H54  1  0.01206670  0.74548323  0.03783613  1
  N  N55  1  0.12549192  0.55844350  0.03365044  1
  H  H56  1  0.15617424  0.78689208  0.08717632  1
  H  H57  1  0.16151640  0.92736513  0.05210839  1
  N  N58  1  0.09368401  0.95031222  0.25753597  1
  N  N59  1  0.02392581  0.62512131  0.47145180  1
  C  C60  1  0.22016318  0.53102280  0.00375325  1
  N  N61  1  0.08228161  0.83678745  0.86925785  1
  N  N62  1  0.17737827  0.82113318  0.72051504  1
  Zn  Zn63  1  0.04703535  0.93690149  0.56629880  1
  N  N64  1  0.15879222  0.61988011  0.89250608  1
  N  N65  1  0.11930712  0.88916872  0.61763126  1
  Zn  Zn66  1  0.20795440  0.70106824  0.80606864  1
  C  C67  1  0.05457425  0.77269200  0.93151349  1
  N  N68  1  0.18441614  0.91979769  0.57256174  1
  H  H69  1  0.06995659  0.91934865  0.86830738  1
  H  H70  1  0.04228979  0.79845426  0.74222705  1
  C  C71  1  0.12604561  0.83867239  0.69928238  1
  H  H72  1  0.09302752  0.70082651  0.78732147  1
  C  C73  1  0.08386695  0.78512687  0.76861871  1
  N  N74  1  0.21754717  0.87664177  0.62493364  1
  H  H75  1  0.14565064  0.82711692  0.95742268  1
  N  N76  1  0.05220577  0.68723591  0.51864795  1
  C  C77  1  0.16544894  0.57399817  0.96458663  1
  N  N78  1  0.00133691  0.61348646  0.74491013  1
  H  H79  1  0.01278598  0.59295368  0.67594348  1
  N  N80  1  0.24627848  0.57491615  0.74244315  1
  N  N81  1  0.24986152  0.78871552  0.91304570  1
  N  N82  1  0.03305834  0.70749258  0.98008302  1
  C  C83  1  0.23257863  0.81540082  0.99927511  1
  N  N84  1  0.36770079  0.01991961  0.05640114  1
  H  H85  1  0.26521352  0.07600502  0.34426936  1
  C  C86  1  0.45146690  0.36264870  0.30565322  1
  C  C87  1  0.45497499  0.30579105  0.19830082  1
  H  H88  1  0.40974059  0.37247413  0.33457593  1
  H  H89  1  0.46987446  0.29761158  0.35412687  1
  N  N90  1  0.36657910  0.12648853  0.30232729  1
  H  H91  1  0.41236157  0.27770303  0.18106644  1
  N  N92  1  0.36861438  0.33756204  0.47033812  1
  N  N93  1  0.32128562  0.30662901  0.03928443  1
  H  H94  1  0.25995774  0.17993185  0.00312800  1
  C  C95  1  0.48345400  0.46407746  0.29905584  1
  H  H96  1  0.45778713  0.37359444  0.14692269  1
  Zn  Zn97  1  0.42415499  0.12752437  0.01885232  1
  H  H98  1  0.37626601  0.14554960  0.22762199  1
  N  N99  1  0.47677815  0.13268114  0.13631337  1
  H  H100  1  0.25645702  0.31429836  0.47154575  1
  C  C101  1  0.49430812  0.21791734  0.18358587  1
  H  H102  1  0.25049854  0.12360707  0.17594073  1
  C  C103  1  0.34834183  0.00193407  0.13265063  1
  N  N104  1  0.33927138  0.04565912  0.31476274  1
  N  N105  1  0.28999667  0.35026670  0.98398132  1
  Zn  Zn106  1  0.27296418  0.35090059  0.73551850  1
  N  N107  1  0.47527788  0.07414688  0.90609359  1
  C  C108  1  0.36074435  0.45025170  0.61738725  1
  N  N109  1  0.36525852  0.23031031  0.96686466  1
  C  C110  1  0.37211269  0.17847352  0.78716610  1
  H  H111  1  0.33944258  0.13609094  0.74363287  1
  C  C112  1  0.34835428  0.24285078  0.87541975  1
  N  N113  1  0.30576328  0.30172496  0.86557982  1
  H  H114  1  0.39384489  0.24195998  0.74327998  1
  H  H115  1  0.40109920  0.11372907  0.81292521  1
  N  N116  1  0.33547847  0.36091478  0.63624762  1
  N  N117  1  0.34377648  0.28295353  0.52705241  1
  N  N118  1  0.38795716  0.45100743  0.53695140  1
  N  N119  1  0.25258051  0.48867120  0.78147222  1
  N  N120  1  0.34913323  0.61904649  0.35593895  1
  N  N121  1  0.26785917  0.81016106  0.06951619  1
  H  H122  1  0.37865336  0.85646589  0.26552852  1
  Zn  Zn123  1  0.41347033  0.57479856  0.44700649  1
  H  H124  1  0.42791204  0.74774857  0.28263593  1
  N  N125  1  0.28964034  0.72837538  0.28934088  1
  N  N126  1  0.25627754  0.61599630  0.32211055  1
  C  C127  1  0.34010098  0.71321665  0.31809833  1
  N  N128  1  0.46852905  0.55277670  0.33913383  1
  C  C129  1  0.38873962  0.78554562  0.31192227  1
  Zn  Zn130  1  0.26102248  0.85702513  0.20894540  1
  H  H131  1  0.40207282  0.81323999  0.38748074  1
  N  N132  1  0.28970031  0.55387265  0.36115236  1
  N  N133  1  0.32082086  0.97930003  0.20835767  1
  N  N134  1  0.33133222  0.78249722  0.01144985  1
  H  H135  1  0.26274329  0.96949736  0.42611483  1
  N  N136  1  0.49228953  0.65179885  0.01933316  1
  N  N137  1  0.48595842  0.71592813  0.08827185  1
  H  H138  1  0.25228869  0.59375128  0.01920448  1
  H  H139  1  0.47024901  0.87043204  0.00762797  1
  N  N140  1  0.47606400  0.76602739  0.66239612  1
  N  N141  1  0.38601364  0.77176349  0.59059608  1
  C  C142  1  0.36348195  0.54607085  0.68576481  1
  N  N143  1  0.43580429  0.68875602  0.54040414  1
  H  H144  1  0.35212417  0.52464729  0.76116315  1
  N  N145  1  0.41039356  0.82479180  0.65175483  1
  H  H146  1  0.33319770  0.61145224  0.66279790  1
  C  C147  1  0.48078395  0.97434098  0.88084740  1
  N  N148  1  0.32000326  0.75829265  0.92809920  1
  C  C149  1  0.44960249  0.88853124  0.93424391  1
  H  H150  1  0.40332297  0.90869117  0.94673357  1
  C  C151  1  0.48066881  0.69540427  0.59208249  1
  H  H152  1  0.40496231  0.58495385  0.67829370  1
  H  H153  1  0.45063719  0.80831613  0.89457155  1
  C  C154  1  0.67797669  0.05767571  0.31459443  1
  N  N155  1  0.53273594  0.05295580  0.13014259  1
  N  N156  1  0.54550697  0.22014787  0.20550745  1
  C  C157  1  0.70849971  0.29347523  0.38027614  1
  C  C158  1  0.68200056  0.37864436  0.12081284  1
  N  N159  1  0.60645090  0.31798264  0.39634212  1
  Zn  Zn160  1  0.58870365  0.35073143  0.26093839  1
  C  C161  1  0.65158902  0.26710842  0.42159563  1
  H  H162  1  0.65505269  0.12100773  0.35007685  1
  H  H163  1  0.71645924  0.23794340  0.31461143  1
  H  H164  1  0.67336438  0.06919802  0.23342558  1
  N  N165  1  0.53527882  0.47144556  0.26970381  1
  N  N166  1  0.57040259  0.09866830  0.16902448  1
  N  N167  1  0.66319024  0.33535699  0.18724685  1
  N  N168  1  0.74768341  0.05869809  0.43693025  1
  H  H169  1  0.71484763  0.37788779  0.35843677  1
  N  N170  1  0.55446325  0.28043554  0.47961493  1
  H  H171  1  0.74046357  0.27618470  0.43611952  1
  C  C172  1  0.73750669  0.05884293  0.34313018  1
  H  H173  1  0.74371973  0.42020341  0.04299541  1
  N  N174  1  0.64236418  0.19448432  0.48350985  1
  N  N175  1  0.70386648  0.42385370  0.04702470  1
  N  N176  1  0.54342777  0.08566463  0.77554811  1
  N  N177  1  0.72833206  0.20319167  0.63753447  1
  N  N178  1  0.68477272  0.26163500  0.72403419  1
  N  N179  1  0.70614576  0.34676853  0.73981348  1
  N  N180  1  0.73963055  0.16946671  0.96980992  1
  Zn  Zn181  1  0.69571036  0.09299949  0.54688061  1
  N  N182  1  0.51800851  0.14687146  0.82646495  1
  H  H183  1  0.64628609  0.18479379  0.86885569  1
  C  C184  1  0.64434677  0.20570448  0.94756864  1
  N  N185  1  0.69213118  0.13779065  0.98337845  1
  H  H186  1  0.65513425  0.29098031  0.96431670  1
  H  H187  1  0.60476935  0.17744846  0.97613695  1
  N  N188  1  0.57574904  0.21440135  0.53275233  1
  H  H189  1  0.59083266  0.05844355  0.51385414  1
  N  N190  1  0.52018669  0.65176115  0.31944981  1
  N  N191  1  0.66418440  0.75215336  0.19109903  1
  N  N192  1  0.55581337  0.60211487  0.27914473  1
  C  C193  1  0.73358912  0.79583718  0.06813319  1
  H  H194  1  0.53304136  0.63220286  0.48382959  1
  N  N195  1  0.68132748  0.83972357  0.21638462  1
  N  N196  1  0.73204464  0.87347275  0.13212998  1
  N  N197  1  0.70006399  0.71739354  0.08694454  1
  H  H198  1  0.51966312  0.75919229  0.10072606  1
  H  H199  1  0.64210365  0.80783790  0.02205990  1
  H  H200  1  0.65924847  0.98260275  0.33680540  1
  Zn  Zn201  1  0.69316896  0.58819270  0.00964916  1
  C  C202  1  0.60205113  0.71860238  0.90942316  1
  H  H203  1  0.65951322  0.85832744  0.89687783  1
  N  N204  1  0.62022025  0.62959370  0.93745302  1
  C  C205  1  0.70194132  0.59901768  0.76693151  1
  N  N206  1  0.51596638  0.96331759  0.80827544  1
  N  N207  1  0.56196894  0.71024426  0.84401876  1
  C  C208  1  0.53106406  0.63519041  0.56386087  1
  H  H209  1  0.52913375  0.55515021  0.59563401  1
  N  N210  1  0.66931109  0.82019852  0.72832312  1
  C  C211  1  0.57645853  0.99285395  0.56325304  1
  H  H212  1  0.68170487  0.66499438  0.80783807  1
  N  N213  1  0.60822354  0.86361790  0.68631948  1
  N  N214  1  0.70247829  0.88059428  0.69085733  1
  C  C215  1  0.62796030  0.82137132  0.94544200  1
  H  H216  1  0.57041544  0.67231640  0.59463511  1
  N  N217  1  0.55177530  0.57580557  0.82289392  1
  C  C218  1  0.61440380  0.94098007  0.61928419  1
  N  N219  1  0.58404767  0.53260382  0.87626726  1
  Zn  Zn220  1  0.53638076  0.82484119  0.74944942  1
  N  N221  1  0.66610680  0.97398402  0.62137619  1
  H  H222  1  0.70644290  0.62675761  0.68768083  1
  H  H223  1  0.53425575  0.96548202  0.55572376  1
  H  H224  1  0.59738785  0.88525071  0.94871200  1
  H  H225  1  0.67395607  0.52846697  0.77606640  1
  H  H226  1  0.52884412  0.65710040  0.98039586  1
  N  N227  1  0.83648274  0.04749521  0.36777250  1
  N  N228  1  0.94993568  0.35273276  0.37053139  1
  N  N229  1  0.78749530  0.09707229  0.01936542  1
  N  N230  1  0.95525446  0.28423512  0.43577924  1
  H  H231  1  0.91911266  0.40909071  0.37994049  1
  N  N232  1  0.78262804  0.05655092  0.28922137  1
  N  N233  1  0.80940152  0.43018257  0.40349180  1
  N  N234  1  0.83098342  0.46190056  0.32970805  1
  N  N235  1  0.97426704  0.49470901  0.03049480  1
  N  N236  1  0.81648260  0.04928371  0.45119412  1
  H  H237  1  0.96857161  0.10428453  0.63769317  1
  N  N238  1  0.92589664  0.24731514  0.76531330  1
  H  H239  1  0.79133996  0.31396759  0.78928433  1
  C  C240  1  0.88184363  0.30281715  0.75573259  1
  Zn  Zn241  1  0.94342189  0.15707870  0.88210200  1
  N  N242  1  0.97426094  0.30207000  0.68548922  1
  H  H243  1  0.85212153  0.30530847  0.56422230  1
  H  H244  1  0.82576381  0.20355713  0.84258114  1
  H  H245  1  0.83772139  0.33234680  0.89297130  1
  N  N246  1  0.88509692  0.37588835  0.68945181  1
  Zn  Zn247  1  0.81751036  0.47299745  0.65197082  1
  C  C248  1  0.83021107  0.28753161  0.82039236  1
  N  N249  1  0.75929068  0.36404460  0.65455046  1
  N  N250  1  0.95094577  0.37041070  0.63683179  1
  C  C251  1  0.81709110  0.25360236  0.55914590  1
  N  N252  1  0.94951927  0.02913345  0.79102136  1
  C  C253  1  0.95592709  0.10863555  0.55795785  1
  H  H254  1  0.93505124  0.03117059  0.54089304  1
  H  H255  1  0.97185914  0.36436800  0.87934592  1
  N  N256  1  0.87793656  0.11515627  0.97194613  1
  C  C257  1  0.83072083  0.12212658  0.97159517  1
  C  C258  1  0.76846919  0.27123424  0.61692022  1
  N  N259  1  0.83934730  0.49145949  0.50783695  1
  H  H260  1  0.82037271  0.18531168  0.50906662  1
  H  H261  1  0.92683209  0.17173894  0.55060644  1
  C  C262  1  0.97709878  0.88721504  0.34707843  1
  Zn  Zn263  1  0.93330177  0.63937582  0.29601241  1
  H  H264  1  0.82900473  0.68361867  0.32051057  1
  N  N265  1  0.91191608  0.90495210  0.10303368  1
  N  N266  1  0.85243682  0.89152767  0.16867823  1
  N  N267  1  0.88117472  0.55062079  0.37559703  1
  C  C268  1  0.81366600  0.76720098  0.29594413  1
  N  N269  1  0.90413953  0.76408263  0.21772049  1
  N  N270  1  0.94072977  0.83021560  0.12601709  1
  C  C271  1  0.85793989  0.81000814  0.22776935  1
  N  N272  1  0.98376146  0.70297196  0.39805618  1
  Zn  Zn273  1  0.78553069  0.98453142  0.14412556  1
  H  H274  1  0.77256300  0.75489526  0.26318921  1
  H  H275  1  0.93911140  0.87188176  0.30654165  1
  N  N276  1  0.96538301  0.53616181  0.20133025  1
  H  H277  1  0.80926359  0.81126664  0.36777830  1
  C  C278  1  0.87755169  0.55140095  0.47133279  1
  N  N279  1  0.93667766  0.52115301  0.08409248  1
  C  C280  1  0.99886575  0.80626876  0.40719946  1
  H  H281  1  0.99909077  0.96451532  0.33594663  1
  H  H282  1  0.81533960  0.84679042  0.00916892  1
  C  C283  1  0.90901299  0.61217253  0.55203165  1
  H  H284  1  0.93053567  0.56280502  0.60766372  1
  H  H285  1  0.94050865  0.66432225  0.52925286  1
  N  N286  1  0.92504583  0.91615624  0.65956866  1
  N  N287  1  0.90034067  0.95937900  0.72620135  1
  H  H288  1  0.88286323  0.66514671  0.58747130  1
  N  N289  1  0.80327532  0.55187947  0.77392302  1
  N  N290  1  0.82069609  0.54962906  0.94821953  1
  C  C291  1  0.77770638  0.80055156  0.98849243  1
  N  N292  1  0.84689373  0.53001455  0.87308001  1
  H  H293  1  0.79326058  0.71990003  0.97207593  1
  C  C294  1  0.93665214  0.71013106  0.83972429  1
  N  N295  1  0.96283448  0.67858075  0.74609711  1
  H  H296  1  0.89555279  0.70842470  0.80533886  1
  H  H297  1  0.76272968  0.83940213  0.92202586  1
  C  C298  1  0.99789588  0.99657795  0.75955046  1
  H  H299  1  0.95047791  0.79335947  0.84903485  1
  N  N300  1  0.99241341  0.94496273  0.67417854  1
  N  N301  1  0.75703840  0.57439246  0.91098019  1
  C  C302  1  0.75689307  0.57725814  0.81524170  1
  H  H303  1  0.94405071  0.65837790  0.90469385  1
