# generated using pymatgen
data_ZnH3C12NO6
_symmetry_space_group_name_H-M   'P 1'
_cell_length_a   24.45783194
_cell_length_b   15.52258803
_cell_length_c   24.98382956
_cell_angle_alpha   90.00000000
_cell_angle_beta   90.00000000
_cell_angle_gamma   90.00000000
_symmetry_Int_Tables_number   1
_chemical_formula_structural   ZnH3C12NO6
_chemical_formula_sum   'Zn24 H72 C288 N24 O144'
_cell_volume   9485.08214347
_cell_formula_units_Z   24
loop_
 _symmetry_equiv_pos_site_id
 _symmetry_equiv_pos_as_xyz
  1  'x, y, z'
loop_
 _atom_site_type_symbol
 _atom_site_label
 _atom_site_symmetry_multiplicity
 _atom_site_fract_x
 _atom_site_fract_y
 _atom_site_fract_z
 _atom_site_occupancy
  O  O0  1  0.19380351  0.15321933  0.02362411  1
  Zn  Zn1  1  0.10975189  0.14300648  0.04996629  1
  C  C2  1  0.09655457  0.26279864  0.14929927  1
  C  C3  1  0.07731118  0.28303305  0.20484837  1
  C  C4  1  0.15889871  0.36087826  0.18529328  1
  C  C5  1  0.14435576  0.42905817  0.31570048  1
  N  N6  1  0.13851292  0.32257770  0.13961737  1
  C  C7  1  0.11550691  0.33967945  0.22890580  1
  C  C8  1  0.15978117  0.24586979  0.44698912  1
  C  C9  1  0.09245450  0.03812896  0.18768971  1
  O  O10  1  0.07906913  0.20487505  0.12115529  1
  C  C11  1  0.22068705  0.10415201  0.42845724  1
  C  C12  1  0.16893095  0.15427605  0.44028610  1
  H  H13  1  0.18621596  0.07844394  0.17907899  1
  C  C14  1  0.05611423  0.40456133  0.35987481  1
  O  O15  1  0.21892752  0.26118121  0.07381322  1
  O  O16  1  0.19948367  0.40586871  0.18779535  1
  C  C17  1  0.11042521  0.36688740  0.28253064  1
  C  C18  1  0.06031578  0.34918453  0.31077534  1
  O  O19  1  0.06371774  0.43115188  0.11820641  1
  C  C20  1  0.19651142  0.46792323  0.47083076  1
  C  C21  1  0.12773495  0.09183975  0.45424475  1
  O  O22  1  0.02361648  0.41030590  0.39409511  1
  C  C23  1  0.19526438  0.32221419  0.43464854  1
  C  C24  1  0.14591224  0.07363725  0.20185977  1
  C  C25  1  0.02239846  0.28591266  0.29122473  1
  C  C26  1  0.11656097  0.06407983  0.30103449  1
  N  N27  1  0.10248132  0.45955335  0.34891996  1
  C  C28  1  0.07611731  0.00885013  0.13305975  1
  C  C29  1  0.03469532  0.25796886  0.23874096  1
  C  C30  1  0.21985722  0.22152447  0.03086254  1
  Zn  Zn31  1  0.14791871  0.38453034  0.06905495  1
  C  C32  1  0.14656842  0.07805889  0.25520407  1
  O  O33  1  0.11343926  0.02241106  0.09601463  1
  H  H34  1  0.12401983  0.08751927  0.34061591  1
  C  C35  1  0.07603051  0.12216015  0.47335848  1
  O  O36  1  0.19112293  0.44557644  0.30791372  1
  N  N37  1  0.17031628  0.38991223  0.46402411  1
  C  C38  1  0.06166276  0.04064790  0.28199696  1
  C  C39  1  0.01673424  0.40358605  0.11752984  1
  O  O40  1  0.02994101  0.01677357  0.36856369  1
  C  C41  1  0.01637730  0.02526365  0.31968227  1
  H  H42  1  0.05894099  0.46196712  0.02500616  1
  C  C43  1  0.05322999  0.02632838  0.22808862  1
  C  C44  1  0.14532622  0.46059311  0.00153768  1
  C  C45  1  0.11328025  0.27260030  0.47542674  1
  C  C46  1  0.02438577  0.07471682  0.48928920  1
  C  C47  1  0.06926333  0.21292837  0.48516699  1
  O  O48  1  0.23536595  0.32095083  0.40613111  1
  C  C49  1  0.24808155  0.48343528  0.44368940  1
  C  C50  1  0.15129125  0.00418910  0.44465638  1
  N  N51  1  0.20452686  0.02290246  0.42902419  1
  H  H52  1  0.01202870  0.00895888  0.21730528  1
  C  C53  1  0.12156611  0.36646169  0.49025395  1
  C  C54  1  0.04596569  0.14405604  0.70641530  1
  C  C55  1  0.08163216  0.28809938  0.73863283  1
  O  O56  1  0.09492138  0.41448167  0.51759009  1
  O  O57  1  0.13392162  0.39069651  0.79077631  1
  C  C58  1  0.08660188  0.19753103  0.73235054  1
  C  C59  1  0.12639559  0.31986976  0.77585011  1
  C  C60  1  0.09012570  0.48633643  0.99550711  1
  Zn  Zn61  1  0.24078005  0.26512265  0.81379050  1
  C  C62  1  0.10280303  0.06372659  0.86276325  1
  H  H63  1  0.12515173  0.12052580  0.84740086  1
  C  C64  1  0.13831558  0.17053774  0.76024543  1
  C  C65  1  0.24823936  0.26316146  0.98319828  1
  O  O66  1  0.16085628  0.10056218  0.76508360  1
  C  C67  1  0.07733344  0.16170396  0.93820713  1
  H  H68  1  0.19832376  0.19482898  0.92188037  1
  C  C69  1  0.23067989  0.24350155  0.92940913  1
  C  C70  1  0.01437463  0.21672385  0.51118575  1
  C  C71  1  0.04108800  0.04923780  0.70013613  1
  C  C72  1  0.05611510  0.00099703  0.94215903  1
  N  N73  1  0.15911161  0.24456292  0.78207034  1
  O  O74  1  0.06130399  0.16950193  0.98816829  1
  C  C75  1  0.03386286  0.32716077  0.71604733  1
  O  O76  1  0.09197251  0.22252833  0.91298903  1
  C  C77  1  0.18589421  0.48611954  0.96375823  1
  C  C78  1  0.07649130  0.07109057  0.91386056  1
  O  O79  1  0.03456453  0.48227071  0.73084463  1
  H  H80  1  0.04243581  0.00477610  0.98343977  1
  C  C81  1  0.01192208  0.41970588  0.71454729  1
  H  H82  1  0.22946183  0.47090536  0.96838585  1
  Zn  Zn83  1  0.04333314  0.90944776  0.41847572  1
  O  O84  1  0.15155587  0.81166983  0.10588398  1
  H  H85  1  0.12324513  0.85610522  0.18839295  1
  C  C86  1  0.18395647  0.86886904  0.09937223  1
  C  C87  1  0.22383155  0.66536731  0.09501802  1
  C  C88  1  0.13473481  0.63050098  0.13558675  1
  C  C89  1  0.15035665  0.86464040  0.26940625  1
  C  C90  1  0.15811814  0.87257036  0.21425820  1
  C  C91  1  0.06551849  0.58089511  0.39667834  1
  C  C92  1  0.09655023  0.83425611  0.29226129  1
  H  H93  1  0.20565065  0.66414219  0.05551688  1
  O  O94  1  0.03115505  0.58943788  0.28138998  1
  C  C95  1  0.07728230  0.66357202  0.41539981  1
  H  H96  1  0.02386111  0.55359432  0.39777497  1
  O  O97  1  0.06009845  0.80416521  0.26211660  1
  C  C98  1  0.16382326  0.58182901  0.36744237  1
  O  O99  1  0.23233919  0.77225071  0.41462530  1
  O  O100  1  0.03313100  0.97259168  0.12262992  1
  C  C101  1  0.19298491  0.88567084  0.30437333  1
  O  O102  1  0.00934023  0.72623516  0.09613210  1
  Zn  Zn103  1  0.05415751  0.67812908  0.22600813  1
  Zn  Zn104  1  0.08477833  0.75082138  0.05182901  1
  C  C105  1  0.22272729  0.71189233  0.38681873  1
  C  C106  1  0.21005946  0.89939801  0.04830952  1
  C  C107  1  0.21651305  0.66010459  0.19391070  1
  C  C108  1  0.20713493  0.90431754  0.19265834  1
  O  O109  1  0.08974579  0.83827033  0.34069610  1
  O  O110  1  0.11134427  0.61243724  0.17978346  1
  H  H111  1  0.18354181  0.87688058  0.34631821  1
  H  H112  1  0.19101807  0.64951403  0.23300167  1
  C  C113  1  0.12693216  0.70603768  0.41473827  1
  O  O114  1  0.03548466  0.78611716  0.45885690  1
  H  H115  1  0.13547208  0.76569502  0.43800189  1
  C  C116  1  0.16930943  0.66202962  0.38909131  1
  N  N117  1  0.21175448  0.91871985  0.13735953  1
  O  O118  1  0.12763380  0.93534182  0.45200601  1
  O  O119  1  0.11046033  0.63061281  0.09141417  1
  C  C120  1  0.19270089  0.65185674  0.14009879  1
  C  C121  1  0.02813126  0.71497978  0.43856134  1
  C  C122  1  0.11080371  0.53911783  0.37271581  1
  H  H123  1  0.19836240  0.54964794  0.34497998  1
  O  O124  1  0.01286355  0.99975922  0.48356186  1
  C  C125  1  0.24309692  0.90796023  0.28340279  1
  H  H126  1  0.04113216  0.51153797  0.20407362  1
  O  O127  1  0.04534813  0.85254889  0.00195551  1
  C  C128  1  0.16795131  0.54305442  0.92161151  1
  O  O129  1  0.03810848  0.77281995  0.93240082  1
  C  C130  1  0.08062988  0.90880830  0.86333270  1
  O  O131  1  0.20867180  0.76814406  0.54310756  1
  O  O132  1  0.18057152  0.86587615  0.70785650  1
  C  C133  1  0.10517287  0.98155854  0.83831873  1
  Zn  Zn134  1  0.14283681  0.94872527  0.76633884  1
  C  C135  1  0.18257115  0.68288129  0.54373582  1
  N  N136  1  0.18411815  0.79582678  0.91677177  1
  O  O137  1  0.19940068  0.62428567  0.84704260  1
  C  C138  1  0.01543008  0.55365299  0.93690511  1
  C  C139  1  0.11229572  0.55839188  0.91133190  1
  C  C140  1  0.07496165  0.53359109  0.94910635  1
  H  H141  1  0.10035482  0.59064312  0.87191212  1
  O  O142  1  0.14096954  0.67339330  0.56657422  1
  C  C143  1  0.22077582  0.91904380  0.94834699  1
  H  H144  1  0.03566902  0.87646950  0.65844381  1
  C  C145  1  0.04525569  0.84363267  0.95309330  1
  C  C146  1  0.17687840  0.79117018  0.96935219  1
  C  C147  1  0.05722333  0.92125334  0.91618206  1
  C  C148  1  0.20315595  0.90570073  0.67006614  1
  O  O149  1  0.04379781  0.72699393  0.65282320  1
  O  O150  1  0.19201952  0.97725070  0.65539503  1
  H  H151  1  0.08295883  0.84475317  0.84374858  1
  C  C152  1  0.20651450  0.86653657  0.89851895  1
  C  C153  1  0.21164305  0.58171640  0.88593507  1
  O  O154  1  0.20919597  0.88429888  0.85160529  1
  C  C155  1  0.24810898  0.86510005  0.63523432  1
  O  O156  1  0.15536347  0.73442418  0.99655950  1
  O  O157  1  0.06598476  0.98669498  0.71649457  1
  C  C158  1  0.20072816  0.87082369  0.99387050  1
  C  C159  1  0.20888072  0.60993561  0.51216676  1
  H  H160  1  0.24101011  0.74895377  0.67906038  1
  C  C161  1  0.17565203  0.53659937  0.50318069  1
  O  O162  1  0.00462147  0.60357649  0.89837091  1
  H  H163  1  0.13474698  0.53920383  0.51814922  1
  H  H164  1  0.22379102  0.76473683  0.50839974  1
  H  H165  1  0.43906088  0.21561494  0.39241350  1
  H  H166  1  0.26450514  0.43686201  0.41332174  1
  O  O167  1  0.26724498  0.12797007  0.42557471  1
  O  O168  1  0.35161921  0.45588574  0.01977165  1
  C  C169  1  0.49465021  0.10483900  0.39424761  1
  H  H170  1  0.29530229  0.34372573  0.03990936  1
  O  O171  1  0.27783151  0.02593220  0.14348299  1
  O  O172  1  0.40187620  0.07034107  0.40751361  1
  H  H173  1  0.41468283  0.09332781  0.02623996  1
  O  O174  1  0.46470540  0.36149911  0.35996162  1
  O  O175  1  0.33972167  0.10456870  0.05027853  1
  C  C176  1  0.44958288  0.04121319  0.40430887  1
  C  C177  1  0.31959263  0.07026767  0.01253300  1
  C  C178  1  0.48093220  0.19306559  0.38670886  1
  Zn  Zn179  1  0.32332275  0.01603722  0.41633835  1
  C  C180  1  0.27675564  0.00177698  0.01222208  1
  O  O181  1  0.33690369  0.21770898  0.71786987  1
  C  C182  1  0.37495217  0.36259262  0.62755370  1
  O  O183  1  0.39537091  0.21096239  0.60353800  1
  C  C184  1  0.33895174  0.36139933  0.67372379  1
  C  C185  1  0.40170140  0.28997961  0.59853332  1
  C  C186  1  0.32470963  0.29252964  0.71379807  1
  N  N187  1  0.43922746  0.33804951  0.56976807  1
  O  O188  1  0.43386563  0.01060656  0.67985650  1
  C  C189  1  0.28902464  0.04562054  0.92059354  1
  C  C190  1  0.31788311  0.44062593  0.69456416  1
  C  C191  1  0.42706693  0.42555477  0.55977917  1
  C  C192  1  0.49714151  0.11681062  0.91541588  1
  H  H193  1  0.41038412  0.35361181  0.72771702  1
  N  N194  1  0.32756000  0.07916712  0.95657437  1
  H  H195  1  0.31304558  0.40130567  0.87083504  1
  C  C196  1  0.40114824  0.10630402  0.88990717  1
  C  C197  1  0.38550866  0.44429866  0.60175931  1
  Zn  Zn198  1  0.42166452  0.14975534  0.68985067  1
  N  N199  1  0.28854080  0.33248354  0.74928012  1
  C  C200  1  0.42375172  0.10142243  0.98275385  1
  O  O201  1  0.44611046  0.47077805  0.52421257  1
  C  C202  1  0.45355282  0.33719347  0.72433315  1
  O  O203  1  0.28869130  0.05726343  0.87355362  1
  C  C204  1  0.45545884  0.11436820  0.87636491  1
  C  C205  1  0.28959588  0.42054366  0.74651121  1
  C  C206  1  0.47366027  0.12582679  0.81715059  1
  O  O207  1  0.26915503  0.46872468  0.77999856  1
  C  C208  1  0.30076641  0.38518651  0.95522759  1
  C  C209  1  0.34176419  0.45442345  0.97173917  1
  C  C210  1  0.47759801  0.10788039  0.96799836  1
  C  C211  1  0.48778874  0.20349895  0.54597583  1
  C  C212  1  0.29026028  0.36369431  0.90100527  1
  O  O213  1  0.43563711  0.13701497  0.78462608  1
  C  C214  1  0.38183143  0.10265047  0.94289104  1
  C  C215  1  0.25498438  0.29597337  0.89124887  1
  H  H216  1  0.37351359  0.11622342  0.85511421  1
  H  H217  1  0.45261631  0.16591898  0.56098085  1
  C  C218  1  0.47184955  0.25787719  0.70584207  1
  C  C219  1  0.48322640  0.29569857  0.54482534  1
  C  C220  1  0.47118140  0.47935534  0.76469530  1
  C  C221  1  0.28147176  0.33310039  0.99666894  1
  O  O222  1  0.48485841  0.01841747  0.53154965  1
  C  C223  1  0.49384100  0.39697162  0.74159401  1
  O  O224  1  0.42315144  0.49759802  0.76624917  1
  O  O225  1  0.37523308  0.64602892  0.27216927  1
  H  H226  1  0.34599841  0.71547313  0.15552575  1
  O  O227  1  0.36402738  0.62690971  0.44154154  1
  C  C228  1  0.27260899  0.68276448  0.19656748  1
  C  C229  1  0.30547609  0.69542555  0.15170099  1
  H  H230  1  0.29250204  0.93768560  0.21766315  1
  O  O231  1  0.25972940  0.68174752  0.35582703  1
  C  C232  1  0.33440566  0.56413353  0.43083777  1
  H  H233  1  0.44237430  0.63474709  0.34985020  1
  Zn  Zn234  1  0.46200034  0.90499927  0.48702912  1
  Zn  Zn235  1  0.28920319  0.69100727  0.27811988  1
  O  O236  1  0.33928275  0.93049112  0.29702761  1
  C  C237  1  0.31216378  0.69588178  0.04942156  1
  C  C238  1  0.46995220  0.60384700  0.26765428  1
  C  C239  1  0.27990132  0.68178036  0.10033711  1
  O  O240  1  0.41085273  0.63750782  0.19304143  1
  C  C241  1  0.27943215  0.55335383  0.45737697  1
  O  O242  1  0.34885274  0.51077782  0.39684344  1
  C  C243  1  0.41509802  0.62878270  0.24204657  1
  O  O244  1  0.35709355  0.72780570  0.05093993  1
  C  C245  1  0.47570487  0.61221041  0.32327168  1
  C  C246  1  0.25209498  0.97531958  0.11726955  1
  C  C247  1  0.29599832  0.92238622  0.31755395  1
  O  O248  1  0.45925607  0.96287120  0.41142035  1
  O  O249  1  0.28885489  0.92429059  0.36904467  1
  O  O250  1  0.37595455  0.87294689  0.49302012  1
  C  C251  1  0.26248323  0.61668711  0.49418632  1
  Zn  Zn252  1  0.43770385  0.60146638  0.48945361  1
  O  O253  1  0.28946995  0.67240014  0.00440014  1
  O  O254  1  0.49826575  0.63727821  0.43115407  1
  C  C255  1  0.25146956  0.92364309  0.23002366  1
  C  C256  1  0.25097105  0.96268962  0.05781437  1
  N  N257  1  0.31901585  0.64845313  0.62722228  1
  O  O258  1  0.26356913  0.63101590  0.70649414  1
  C  C259  1  0.33121550  0.78501241  0.57649872  1
  C  C260  1  0.35308281  0.60612961  0.59171788  1
  C  C261  1  0.30767709  0.73870696  0.61961452  1
  C  C262  1  0.29658553  0.60404919  0.67066758  1
  C  C263  1  0.33641586  0.90971056  0.51612578  1
  O  O264  1  0.37343685  0.63275547  0.54967913  1
  H  H265  1  0.25782381  0.97287396  0.57867401  1
  H  H266  1  0.36577759  0.75286881  0.55193791  1
  C  C267  1  0.30988831  0.86439442  0.56219124  1
  C  C268  1  0.26534045  0.78252239  0.64839154  1
  O  O269  1  0.35197179  0.95975363  0.68863591  1
  O  O270  1  0.47716700  0.70205298  0.54424331  1
  C  C271  1  0.25806625  0.98649207  0.95844716  1
  C  C272  1  0.26808610  0.90639917  0.58950441  1
  C  C273  1  0.39989002  0.96137591  0.70001041  1
  C  C274  1  0.35579356  0.51928270  0.61580536  1
  H  H275  1  0.46443359  0.73979317  0.85384948  1
  C  C276  1  0.42137235  0.89745688  0.74443103  1
  C  C277  1  0.40603408  0.77855733  0.80273921  1
  C  C278  1  0.38720890  0.83283795  0.76131605  1
  C  C279  1  0.46020606  0.78126103  0.81947657  1
  H  H280  1  0.34697771  0.82166464  0.74409463  1
  C  C281  1  0.36386213  0.72170759  0.82859738  1
  O  O282  1  0.31690333  0.72166243  0.81329498  1
  C  C283  1  0.32240043  0.52014220  0.66566560  1
  Zn  Zn284  1  0.32569309  0.63344363  0.93470926  1
  O  O285  1  0.37673966  0.67706217  0.86952625  1
  C  C286  1  0.47442855  0.90498441  0.76272327  1
  Zn  Zn287  1  0.26650735  0.61066883  0.78518998  1
  C  C288  1  0.49689784  0.84185502  0.79945165  1
  O  O289  1  0.25956736  0.55932495  0.89589369  1
  O  O290  1  0.36228244  0.50895463  0.94063770  1
  O  O291  1  0.31648248  0.98049391  0.50017387  1
  H  H292  1  0.28788030  0.66876461  0.50696677  1
  C  C293  1  0.65895367  0.36314158  0.12231914  1
  O  O294  1  0.57283761  0.31083806  0.07643553  1
  C  C295  1  0.71335694  0.33746584  0.11362945  1
  C  C296  1  0.62136965  0.31691452  0.08056566  1
  C  C297  1  0.54878479  0.07086873  0.39265447  1
  N  N298  1  0.65952264  0.26936543  0.05022550  1
  C  C299  1  0.57846598  0.21500991  0.37572775  1
  C  C300  1  0.52525461  0.24353842  0.37570124  1
  C  C301  1  0.59291932  0.12699435  0.38891221  1
  Zn  Zn302  1  0.63677888  0.17738595  0.00615197  1
  C  C303  1  0.64324673  0.42122575  0.16400885  1
  H  H304  1  0.55720572  0.00269950  0.39761558  1
  C  C305  1  0.51252831  0.33908212  0.36245880  1
  C  C306  1  0.65658412  0.49887458  0.24725976  1
  H  H307  1  0.60874044  0.26684427  0.37012545  1
  H  H308  1  0.68346055  0.18942086  0.33862169  1
  C  C309  1  0.69186078  0.13143257  0.36040445  1
  O  O310  1  0.55150719  0.38730206  0.35923403  1
  C  C311  1  0.65074119  0.09095653  0.39047042  1
  O  O312  1  0.62133358  0.42577069  0.49100631  1
  C  C313  1  0.71448930  0.27370885  0.06724774  1
  O  O314  1  0.66313297  0.31507871  0.46221941  1
  C  C315  1  0.62594536  0.35006009  0.48329607  1
  C  C316  1  0.52579730  0.10786788  0.01023544  1
  C  C317  1  0.68130143  0.44008798  0.20422303  1
  O  O318  1  0.54973836  0.47633887  0.15132582  1
  O  O319  1  0.51416836  0.11337278  0.05633468  1
  H  H320  1  0.61054769  0.17934260  0.47787987  1
  C  C321  1  0.73843289  0.41921377  0.19418378  1
  C  C322  1  0.59031151  0.47201338  0.17767820  1
  C  C323  1  0.66552848  0.01598490  0.41995252  1
  C  C324  1  0.74341489  0.09416760  0.36050158  1
  C  C325  1  0.57358731  0.20824549  0.49928119  1
  H  H326  1  0.54218961  0.16761136  0.69978999  1
  O  O327  1  0.66071798  0.30570658  0.74986029  1
  N  N328  1  0.66963144  0.07163653  0.95669168  1
  Zn  Zn329  1  0.62272406  0.09954308  0.78846061  1
  O  O330  1  0.62212229  0.10873214  0.87936106  1
  C  C331  1  0.52909421  0.06208549  0.52079339  1
  C  C332  1  0.53236752  0.16051985  0.52342160  1
  O  O333  1  0.52020830  0.12128777  0.80162765  1
  C  C334  1  0.74177995  0.04367114  0.82351735  1
  H  H335  1  0.57632685  0.42539878  0.76134997  1
  C  C336  1  0.56503389  0.29528201  0.73071504  1
  O  O337  1  0.63122589  0.18206155  0.72336909  1
  C  C338  1  0.54911811  0.37759468  0.74566531  1
  H  H339  1  0.53001300  0.41587883  0.52284244  1
  C  C340  1  0.62271512  0.26167572  0.73562945  1
  C  C341  1  0.52814772  0.34243223  0.52331522  1
  C  C342  1  0.64181632  0.05354079  0.90925899  1
  C  C343  1  0.52727655  0.23115344  0.70979293  1
  H  H344  1  0.54014339  0.12066086  0.90416114  1
  O  O345  1  0.70882523  0.02922598  0.78867663  1
  C  C346  1  0.57141735  0.29721732  0.50388686  1
  O  O347  1  0.65542599  0.49166371  0.70821020  1
  O  O348  1  0.57065428  0.02557773  0.51091355  1
  O  O349  1  0.57307017  0.09846596  0.99227054  1
  H  H350  1  0.63411943  0.98607806  0.44567786  1
  C  C351  1  0.52454751  0.58832460  0.34507472  1
  O  O352  1  0.67848549  0.53705884  0.28209305  1
  C  C353  1  0.53782949  0.60090640  0.40434182  1
  C  C354  1  0.56930933  0.55811997  0.31633703  1
  O  O355  1  0.57713189  0.57331774  0.42680068  1
  H  H356  1  0.60758413  0.54100224  0.33791742  1
  C  C357  1  0.56319357  0.54795179  0.25985700  1
  C  C358  1  0.51284746  0.57587398  0.23620699  1
  O  O359  1  0.69565056  0.87791029  0.48797279  1
  C  C360  1  0.73371950  0.90716797  0.45686668  1
  C  C361  1  0.71836345  0.98290479  0.42083234  1
  N  N362  1  0.60267249  0.50509485  0.22851111  1
  H  H363  1  0.50804912  0.57256398  0.19182385  1
  O  O364  1  0.74346619  0.80752333  0.01796633  1
  O  O365  1  0.72155520  0.99501111  0.01711313  1
  C  C366  1  0.60605211  0.84870622  0.65226776  1
  C  C367  1  0.59773635  0.79985756  0.69997063  1
  C  C368  1  0.67332208  0.68240417  0.92406562  1
  C  C369  1  0.53627525  0.70322640  0.64086012  1
  C  C370  1  0.57977233  0.83475880  0.60489198  1
  C  C371  1  0.54562281  0.76256492  0.59936100  1
  O  O372  1  0.67119592  0.94827592  0.60732093  1
  C  C373  1  0.61831225  0.81067179  0.87297447  1
  C  C374  1  0.57710050  0.76965014  0.83767324  1
  C  C375  1  0.56100036  0.72954869  0.68883596  1
  C  C376  1  0.69761956  0.64828943  0.58942757  1
  C  C377  1  0.66948489  0.56065895  0.72196493  1
  H  H378  1  0.62308830  0.80695025  0.73755388  1
  O  O379  1  0.73724146  0.82652581  0.76774285  1
  C  C380  1  0.65139869  0.92177769  0.64873685  1
  C  C381  1  0.68513411  0.83447253  0.94360466  1
  H  H382  1  0.50120817  0.96072718  0.74929309  1
  O  O383  1  0.56605782  0.69327539  0.83136693  1
  N  N384  1  0.55139336  0.84518343  0.81868669  1
  H  H385  1  0.58730761  0.87807965  0.57124359  1
  H  H386  1  0.69992181  0.69717103  0.77411283  1
  C  C387  1  0.60734360  0.90183103  0.86929264  1
  Zn  Zn388  1  0.54333561  0.64075090  0.75282894  1
  C  C389  1  0.67754774  0.92382980  0.94099555  1
  C  C390  1  0.57457866  0.92504617  0.82000647  1
  O  O391  1  0.57421322  0.98462033  0.78705107  1
  C  C392  1  0.65778834  0.77489988  0.90958061  1
  O  O393  1  0.66960749  0.94413600  0.69390624  1
  O  O394  1  0.65416965  0.62109474  0.90173986  1
  C  C395  1  0.63709930  0.95781854  0.90581330  1
  Zn  Zn396  1  0.70984338  0.83788118  0.56556234  1
  C  C397  1  0.72618771  0.57176598  0.74955975  1
  C  C398  1  0.73398387  0.65110850  0.77106850  1
  O  O399  1  0.64046034  0.62563651  0.73214802  1
  N  N400  1  0.71323220  0.69324103  0.96394665  1
  O  O401  1  0.66201840  0.60795472  0.56750923  1
  C  C402  1  0.72079490  0.78000914  0.98013304  1
  O  O403  1  0.69433730  0.72634620  0.60468723  1
  H  H404  1  0.71878506  0.53215933  0.91773197  1
  C  C405  1  0.74675807  0.54595094  0.95244009  1
  C  C406  1  0.74211714  0.62184293  0.98403257  1
  O  O407  1  0.52206812  0.81849215  0.51781399  1
  O  O408  1  0.50692748  0.53211903  0.78128760  1
  C  C409  1  0.51308885  0.75683484  0.55055200  1
  H  H410  1  0.50935888  0.64404897  0.63567218  1
  C  C411  1  0.69432193  0.99850065  0.97813758  1
  H  H412  1  0.73091374  0.50979505  0.54114236  1
  O  O413  1  0.97659373  0.15254401  0.18502360  1
  O  O414  1  0.99950764  0.36218421  0.07956027  1
  C  C415  1  0.97752921  0.42546368  0.16583259  1
  O  O416  1  0.94764076  0.25423668  0.35592849  1
  C  C417  1  0.92671034  0.38981027  0.16134001  1
  O  O418  1  0.78074535  0.19764970  0.30016561  1
  C  C419  1  0.79109809  0.44184682  0.22211563  1
  O  O420  1  0.83222191  0.06645512  0.18122486  1
  C  C421  1  0.78797895  0.13081345  0.32566804  1
  N  N422  1  0.83128729  0.40186746  0.19128249  1
  C  C423  1  0.90490384  0.47474344  0.24130048  1
  C  C424  1  0.97244545  0.24066484  0.31497819  1
  O  O425  1  0.83506054  0.09643526  0.33067726  1
  C  C426  1  0.88686116  0.41822663  0.20008565  1
  H  H427  1  0.91590545  0.34845097  0.12764834  1
  N  N428  1  0.95854795  0.18688529  0.27282189  1
  O  O429  1  0.83984297  0.31919873  0.11194490  1
  C  C430  1  0.81496630  0.35668865  0.14534657  1
  C  C431  1  0.75371609  0.36446805  0.15100482  1
  H  H432  1  0.85580249  0.03186287  0.08212144  1
  Zn  Zn433  1  0.89826465  0.10502119  0.27489218  1
  C  C434  1  0.75922839  0.02174854  0.39025953  1
  C  C435  1  0.98615099  0.19399589  0.22464694  1
  H  H436  1  0.85865197  0.45177356  0.01297155  1
  C  C437  1  0.85659517  0.00144877  0.19106742  1
  O  O438  1  0.75023940  0.23367550  0.04484179  1
  C  C439  1  0.99955666  0.48192881  0.20411859  1
  C  C440  1  0.96075446  0.49766393  0.24381748  1
  O  O441  1  0.79663096  0.47995652  0.26405418  1
  O  O442  1  0.78590037  0.34846439  0.53784304  1
  O  O443  1  0.93727294  0.13141173  0.61443101  1
  O  O444  1  0.90816414  0.31146511  0.64775962  1
  C  C445  1  0.90297447  0.04629031  0.79237633  1
  O  O446  1  0.89366646  0.19770865  0.79985390  1
  H  H447  1  0.82416305  0.09901693  0.76377524  1
  O  O448  1  0.81148253  0.17935231  0.90547917  1
  C  C449  1  0.97056152  0.12229944  0.65040054  1
  C  C450  1  0.92568955  0.13276235  0.80862493  1
  C  C451  1  0.85115868  0.04342901  0.76831683  1
  C  C452  1  0.94750600  0.33860165  0.67161051  1
  N  N453  1  0.99291509  0.04512942  0.66995074  1
  N  N454  1  0.96229421  0.41962992  0.68583704  1
  Zn  Zn455  1  0.91797939  0.25300679  0.56645702  1
  C  C456  1  0.80326797  0.02045606  0.89258230  1
  C  C457  1  0.79489923  0.41047172  0.92665343  1
  O  O458  1  0.96911458  0.14482351  0.82933747  1
  C  C459  1  0.78818773  0.11751722  0.88658701  1
  C  C460  1  0.84378596  0.43445427  0.79214318  1
  O  O461  1  0.83088840  0.35155772  0.93079733  1
  H  H462  1  0.88665261  0.02668276  0.65538658  1
  O  O463  1  0.87260819  0.36702721  0.54886478  1
  O  O464  1  0.82478339  0.35823606  0.78407976  1
  Zn  Zn465  1  0.84546477  0.27762950  0.85663358  1
  C  C466  1  0.82385867  0.39285290  0.55169472  1
  O  O467  1  0.88717544  0.44720089  0.81454582  1
  C  C468  1  0.81100707  0.48088824  0.57991672  1
  C  C469  1  0.87068859  0.01375667  0.97468383  1
  O  O470  1  0.75736239  0.39917629  0.89518590  1
  O  O471  1  0.87265630  0.08640627  0.98987330  1
  C  C472  1  0.99407407  0.27989771  0.68739958  1
  O  O473  1  0.99077264  0.28260354  0.52945097  1
  N  N474  1  0.99396220  0.13437218  0.51123537  1
  C  C475  1  0.99931371  0.18786138  0.68333288  1
  H  H476  1  0.75135085  0.44006611  0.73360598  1
  N  N477  1  0.75271240  0.11887294  0.84657838  1
  C  C478  1  0.79022972  0.48965260  0.96360394  1
  H  H479  1  0.95833657  0.81522678  0.03866339  1
  C  C480  1  0.93782782  0.85651577  0.06816000  1
  C  C481  1  0.87830779  0.97376730  0.09098415  1
  C  C482  1  0.82220140  0.57471336  0.03640284  1
  O  O483  1  0.98316745  0.73373260  0.17980569  1
  O  O484  1  0.94915774  0.59752420  0.31674022  1
  C  C485  1  0.98095739  0.76035373  0.13252993  1
  H  H486  1  0.77831173  0.69312562  0.05185021  1
  C  C487  1  0.94557678  0.83744153  0.12255160  1
  O  O488  1  0.85128724  0.64793621  0.11912181  1
  C  C489  1  0.77925500  0.63064160  0.02834144  1
  H  H490  1  0.91968863  0.86400287  0.20681776  1
  C  C491  1  0.98056570  0.56568853  0.28422250  1
  C  C492  1  0.91792048  0.88393820  0.16180473  1
  C  C493  1  0.86458704  0.59400313  0.08543781  1
  C  C494  1  0.90385505  0.92478160  0.04929054  1
  O  O495  1  0.90914215  0.55536872  0.08788571  1
  C  C496  1  0.88711109  0.95167401  0.14464645  1
  O  O497  1  0.97149987  0.99846575  0.30163708  1
  O  O498  1  0.78019943  0.88307848  0.45901346  1
  O  O499  1  0.98389391  0.67993163  0.43878426  1
  H  H500  1  0.87613561  0.50331404  0.26954471  1
  O  O501  1  0.86573425  0.98055268  0.23775667  1
  H  H502  1  0.80099235  0.99119808  0.39671992  1
  C  C503  1  0.82576941  0.50137683  0.00637400  1
  C  C504  1  0.82156666  0.90233069  0.61691477  1
  C  C505  1  0.75230830  0.60281879  0.59799739  1
  C  C506  1  0.88255331  0.89426494  0.63084411  1
  C  C507  1  0.99153823  0.88382167  0.65366296  1
  O  O508  1  0.97854575  0.52624825  0.96513105  1
  C  C509  1  0.96604674  0.96722975  0.65781802  1
  C  C510  1  0.76187807  0.52702294  0.57133939  1
  C  C511  1  0.79090084  0.64060316  0.63387532  1
  C  C512  1  0.86471090  0.88760541  0.75425113  1
  H  H513  1  0.87970549  0.76019426  0.61108875  1
  C  C514  1  0.93483960  0.97288478  0.80057626  1
  N  N515  1  0.80111385  0.74507755  0.81545181  1
  H  H516  1  0.86567546  0.60277165  0.81746843  1
  H  H517  1  0.97589643  0.97266212  0.82167667  1
  C  C518  1  0.83787369  0.59454505  0.64212331  1
  O  O519  1  0.93159387  0.74808615  0.76714831  1
  Zn  Zn520  1  0.75453615  0.95771129  0.71374364  1
  C  C521  1  0.90630150  0.81468024  0.62262410  1
  H  H522  1  0.78501630  0.70273648  0.65381016  1
  O  O523  1  0.92174669  0.79731382  0.96393975  1
  O  O524  1  0.79729486  0.83874198  0.60033346  1
  C  C525  1  0.84724619  0.51617580  0.61499558  1
  Zn  Zn526  1  0.96290469  0.72879448  0.89767238  1
  O  O527  1  0.87226620  0.69891720  0.87110146  1
  C  C528  1  0.85487020  0.88803561  0.91955364  1
  C  C529  1  0.83975449  0.75190165  0.85713987  1
  C  C530  1  0.82966656  0.84239811  0.87538715  1
  H  H531  1  0.85429060  0.82347610  0.73886085  1
  O  O532  1  0.79775286  0.97207279  0.62475571  1
  O  O533  1  0.98384742  0.80580168  0.82649239  1
  O  O534  1  0.97124583  0.65952750  0.62279543  1
  C  C535  1  0.96262504  0.81275527  0.63508532  1
  C  C536  1  0.78659496  0.66558309  0.79433290  1
  C  C537  1  0.82477623  0.59636132  0.79855291  1
  C  C538  1  0.94630459  0.80928617  0.79380131  1
  C  C539  1  0.89382459  0.86190293  0.96257755  1
  C  C540  1  0.91476478  0.89746373  0.78202655  1
  C  C541  1  0.83436276  0.96360578  0.74828257  1
  C  C542  1  0.78895660  0.88532081  0.84280130  1
  Zn  Zn543  1  0.91022322  0.54154211  0.66198530  1
  C  C544  1  0.90877833  0.96713747  0.64986498  1
  C  C545  1  0.84087124  0.97849599  0.92632938  1
  C  C546  1  0.81000726  0.51756145  0.77988977  1
  C  C547  1  0.77401131  0.97381306  0.85188178  1
  C  C548  1  0.77022408  0.81832224  0.80266723  1
  C  C549  1  0.76106459  0.50095568  0.75291788  1
  N  N550  1  0.89256323  0.93551791  0.99485114  1
  C  C551  1  0.99549772  0.72781758  0.63663911  1
