# generated using pymatgen
data_Na2ZnH4(C6O5)2
_symmetry_space_group_name_H-M   'P 1'
_cell_length_a   23.98143123
_cell_length_b   17.48518408
_cell_length_c   16.65590093
_cell_angle_alpha   90.00000000
_cell_angle_beta   90.00000000
_cell_angle_gamma   90.00000000
_symmetry_Int_Tables_number   1
_chemical_formula_structural   Na2ZnH4(C6O5)2
_chemical_formula_sum   'Na36 Zn18 H72 C216 O180'
_cell_volume   6984.14803662
_cell_formula_units_Z   18
loop_
 _symmetry_equiv_pos_site_id
 _symmetry_equiv_pos_as_xyz
  1  'x, y, z'
loop_
 _atom_site_type_symbol
 _atom_site_label
 _atom_site_symmetry_multiplicity
 _atom_site_fract_x
 _atom_site_fract_y
 _atom_site_fract_z
 _atom_site_occupancy
  C  C0  1  0.05353162  0.24801940  0.17666257  1
  Na  Na1  1  0.09534737  0.42209962  0.26096140  1
  Na  Na2  1  0.24108039  0.03636399  0.31258765  1
  C  C3  1  0.10532736  0.17314970  0.24141653  1
  O  O4  1  0.13247487  0.34124293  0.37196053  1
  O  O5  1  0.21693481  0.28491056  0.05533032  1
  O  O6  1  0.05068260  0.16537281  0.26736795  1
  O  O7  1  0.15164340  0.10075904  0.33761072  1
  O  O8  1  0.10801160  0.36251789  0.06820760  1
  C  C9  1  0.02229051  0.21630871  0.22384625  1
  C  C10  1  0.15640819  0.14416438  0.27533539  1
  O  O11  1  0.01128781  0.39720801  0.10308597  1
  O  O12  1  0.04528835  0.31767837  0.37011736  1
  C  C13  1  0.07715554  0.40860560  0.09330665  1
  O  O14  1  0.06141927  0.10815279  0.06547345  1
  H  H15  1  0.14943562  0.23984620  0.14610483  1
  H  H16  1  0.03888080  0.29592423  0.13323330  1
  C  C17  1  0.11230501  0.22350456  0.17873610  1
  C  C18  1  0.08817536  0.34373430  0.40651828  1
  Na  Na19  1  0.09846041  0.18901392  0.42108231  1
  O  O20  1  0.20406830  0.15970573  0.24732577  1
  H  H21  1  0.13686889  0.03286500  0.15011352  1
  O  O22  1  0.22828329  0.22006015  0.46549951  1
  H  H23  1  0.24801092  0.03786382  0.10317854  1
  C  C24  1  0.22662523  0.00041530  0.14665830  1
  C  C25  1  0.08395407  0.48588236  0.11992904  1
  C  C26  1  0.08413323  0.36683621  0.49191221  1
  C  C27  1  0.09650200  0.40029988  0.62470870  1
  O  O28  1  0.12336917  0.39661757  0.53271133  1
  O  O29  1  0.10954105  0.00683152  0.61613839  1
  H  H30  1  0.16206204  0.36875598  0.94615891  1
  C  C31  1  0.19694284  0.14893454  0.58331858  1
  C  C32  1  0.09525772  0.22253319  0.81217020  1
  H  H33  1  0.17858756  0.44528639  0.79981770  1
  Na  Na34  1  0.18895962  0.26942818  0.71891575  1
  O  O35  1  0.18339484  0.20635536  0.84630508  1
  C  C36  1  0.20100378  0.37338983  0.91047350  1
  O  O37  1  0.06811749  0.04882543  0.94884832  1
  H  H38  1  0.01279879  0.35817173  0.65655618  1
  O  O39  1  0.09094960  0.28827663  0.84865182  1
  C  C40  1  0.04134739  0.31611539  0.81543230  1
  O  O41  1  0.12163510  0.42637023  0.67787038  1
  C  C42  1  0.20791919  0.40752835  0.83299885  1
  O  O43  1  0.14912455  0.10111244  0.79580530  1
  C  C44  1  0.22118439  0.03220970  0.96071846  1
  C  C45  1  0.15651060  0.11316585  0.57090550  1
  C  C46  1  0.10913378  0.06596965  0.56879001  1
  C  C47  1  0.14307434  0.16850082  0.81779695  1
  C  C48  1  0.05404357  0.20278844  0.75592628  1
  H  H49  1  0.04976661  0.15202827  0.71680988  1
  O  O50  1  0.07389220  0.07050067  0.51200509  1
  C  C51  1  0.04389287  0.36403945  0.60995665  1
  C  C52  1  0.04456485  0.09817877  0.99110977  1
  C  C53  1  0.03474988  0.34238627  0.53157182  1
  C  C54  1  0.23627359  0.20535861  0.53274762  1
  C  C55  1  0.00558901  0.37988091  0.82945582  1
  O  O56  1  0.23367756  0.14696665  0.67051189  1
  H  H57  1  0.21783214  0.09536996  0.94893506  1
  Na  Na58  1  0.12850422  0.19136776  0.98259994  1
  O  O59  1  0.01096950  0.42372321  0.89202819  1
  C  C60  1  0.00179013  0.14770476  0.96196780  1
  H  H61  1  0.00926194  0.09807129  0.83938657  1
  C  C62  1  0.01863932  0.26714944  0.75792538  1
  O  O63  1  0.05267349  0.54829060  0.30649521  1
  C  C64  1  0.01815985  0.70543716  0.09592069  1
  O  O65  1  0.04148359  0.72165480  0.15807443  1
  C  C66  1  0.24457582  0.93525621  0.18548153  1
  O  O67  1  0.13348898  0.53691315  0.35763819  1
  Na  Na68  1  0.23133175  0.77217633  0.13693793  1
  O  O69  1  0.08988219  0.86500897  0.28596803  1
  H  H70  1  0.12508340  0.51238923  0.11625641  1
  C  C71  1  0.14022499  0.59666394  0.02476136  1
  O  O72  1  0.06320660  0.70315242  0.40535938  1
  H  H73  1  0.10685740  0.65028771  0.12743896  1
  O  O74  1  0.24852661  0.78764390  0.46733465  1
  C  C75  1  0.21954455  0.65063185  0.24555638  1
  O  O76  1  0.21326817  0.71664709  0.27677469  1
  O  O77  1  0.17337644  0.78277790  0.02623098  1
  C  C78  1  0.04776114  0.66299608  0.03045846  1
  C  C79  1  0.08721752  0.56834761  0.35701136  1
  C  C80  1  0.09899958  0.92086307  0.23975315  1
  C  C81  1  0.07465450  0.63337162  0.41854875  1
  O  O82  1  0.20375517  0.89609984  0.23368301  1
  C  C83  1  0.15860005  0.93422300  0.21692026  1
  C  C84  1  0.09864403  0.63873878  0.06265624  1
  C  C85  1  0.03472427  0.51850548  0.14804020  1
  Na  Na86  1  0.18371377  0.66143126  0.40152312  1
  O  O87  1  0.05934534  0.95475193  0.20494414  1
  O  O88  1  0.19960290  0.63345875  0.17887761  1
  C  C89  1  0.24067088  0.93093146  0.43788284  1
  H  H90  1  0.17805602  0.58285310  0.06136763  1
  C  C91  1  0.22435372  0.85391797  0.47325951  1
  H  H92  1  0.04514290  0.83391179  0.41792333  1
  H  H93  1  0.02847620  0.57620729  0.17301713  1
  H  H94  1  0.23167488  0.50697564  0.18873303  1
  C  C95  1  0.15699516  0.84928164  0.01209703  1
  O  O96  1  0.03459311  0.86501901  0.46107498  1
  C  C97  1  0.16911701  0.99349186  0.16859046  1
  O  O98  1  0.21070268  0.99093642  0.44472626  1
  C  C99  1  0.08515858  0.60677765  0.49641277  1
  O  O100  1  0.10620062  0.86769226  0.01278198  1
  C  C101  1  0.06416024  0.73238086  0.49635966  1
  O  O102  1  0.17061351  0.83830877  0.73503237  1
  C  C103  1  0.22237138  0.67973510  0.57199841  1
  C  C104  1  0.14873036  0.57153827  0.87189520  1
  C  C105  1  0.09990746  0.71039259  0.73822768  1
  Na  Na106  1  0.05634988  0.50565797  0.96883133  1
  C  C107  1  0.17960022  0.86698716  0.52330018  1
  C  C108  1  0.05020358  0.80297711  0.52673511  1
  C  C109  1  0.14428693  0.58313275  0.94229703  1
  H  H110  1  0.13908456  0.78757218  0.61689904  1
  O  O111  1  0.02520639  0.65615155  0.96343575  1
  C  C112  1  0.05626628  0.65962585  0.73599240  1
  O  O113  1  0.19062177  0.65547776  0.62983657  1
  H  H114  1  0.05803030  0.60361454  0.70608952  1
  Zn  Zn115  1  0.21854373  0.56569923  0.71278035  1
  O  O116  1  0.13401031  0.87376029  0.84734167  1
  O  O117  1  0.15034366  0.55286714  0.80076900  1
  C  C118  1  0.17288134  0.79705309  0.56941326  1
  C  C119  1  0.13446595  0.83338341  0.78628009  1
  O  O120  1  0.03676623  0.77486955  0.81159770  1
  C  C121  1  0.08512251  0.77511092  0.78233327  1
  H  H122  1  0.08547689  0.67995041  0.61117928  1
  Na  Na123  1  0.12226283  0.72118578  0.91668917  1
  H  H124  1  0.09533893  0.54713439  0.51543721  1
  C  C125  1  0.01091051  0.69101408  0.78160122  1
  H  H126  1  0.14044690  0.70295317  0.70940024  1
  Zn  Zn127  1  0.06145556  0.92426697  0.91913492  1
  C  C128  1  0.21338357  0.75181980  0.53885680  1
  C  C129  1  0.08060331  0.67263521  0.54631255  1
  C  C130  1  0.19999198  0.90896663  0.99067098  1
  O  O131  1  0.04896703  0.82741115  0.59605377  1
  Na  Na132  1  0.01928177  0.96502566  0.56909964  1
  H  H133  1  0.15696008  0.91862509  0.53172174  1
  H  H134  1  0.13450441  0.99143184  0.99464522  1
  C  C135  1  0.17837301  0.97938871  0.98220549  1
  H  H136  1  0.24683937  0.71683509  0.81063902  1
  Na  Na137  1  0.17098379  0.98541868  0.73640685  1
  C  C138  1  0.00746370  0.98537489  0.74880000  1
  O  O139  1  0.04772613  0.95885310  0.78662470  1
  Na  Na140  1  0.38949513  0.29321628  0.41851676  1
  H  H141  1  0.31027412  0.15741363  0.19279079  1
  H  H142  1  0.44852935  0.25127253  0.23631592  1
  O  O143  1  0.46432230  0.11531046  0.24548962  1
  C  C144  1  0.41763186  0.12938622  0.35227947  1
  C  C145  1  0.36021387  0.39960353  0.16293125  1
  C  C146  1  0.44506915  0.31843947  0.23640409  1
  O  O147  1  0.32152389  0.15683516  0.13666278  1
  C  C148  1  0.46369809  0.11693502  0.32393766  1
  H  H149  1  0.41122667  0.12809466  0.41841948  1
  C  C150  1  0.36867057  0.13625967  0.29722169  1
  O  O151  1  0.31986618  0.14576036  0.30827299  1
  C  C152  1  0.38159407  0.13218449  0.15411460  1
  C  C153  1  0.40074392  0.12695372  0.21963636  1
  O  O154  1  0.40720347  0.12763095  0.08623283  1
  O  O155  1  0.31566730  0.27614789  0.02323692  1
  H  H156  1  0.31288596  0.42910442  0.28034892  1
  H  H157  1  0.30585965  0.25261392  0.07543556  1
  Zn  Zn158  1  0.42923784  0.45420246  0.22921367  1
  O  O159  1  0.31854573  0.42726614  0.13137854  1
  O  O160  1  0.37351482  0.43413283  0.39757556  1
  C  C161  1  0.39629534  0.34288243  0.19682028  1
  H  H162  1  0.41010504  0.03724060  0.48553580  1
  C  C163  1  0.29810200  0.48887316  0.28962672  1
  C  C164  1  0.48839266  0.36010610  0.28762168  1
  C  C165  1  0.49491683  0.44112655  0.30614092  1
  O  O166  1  0.49929675  0.08921099  0.45271984  1
  C  C167  1  0.25157861  0.30262197  0.00757198  1
  Zn  Zn168  1  0.37080486  0.29209579  0.68229849  1
  O  O169  1  0.32223736  0.26478033  0.57139814  1
  C  C170  1  0.27721806  0.18940594  0.66373700  1
  O  O171  1  0.30740357  0.20497193  0.72063407  1
  C  C172  1  0.31836810  0.01534613  0.93415276  1
  O  O173  1  0.32288586  0.08762801  0.91281065  1
  C  C174  1  0.46217257  0.28739395  0.91637189  1
  C  C175  1  0.28376773  0.22277397  0.58553868  1
  O  O176  1  0.43542254  0.20380347  0.66682791  1
  Na  Na177  1  0.36589400  0.08456343  0.76071625  1
  O  O178  1  0.29424740  0.35525152  0.86423002  1
  O  O179  1  0.44836116  0.05675106  0.61767226  1
  H  H180  1  0.46412295  0.21589981  0.69938170  1
  Zn  Zn181  1  0.48130227  0.15811251  0.57031009  1
  O  O182  1  0.41073996  0.31386778  0.79642136  1
  C  C183  1  0.46357215  0.33416931  0.56877609  1
  O  O184  1  0.47221869  0.24853275  0.98470827  1
  O  O185  1  0.41428746  0.35679179  0.58717507  1
  C  C186  1  0.28433310  0.42290960  0.73567139  1
  C  C187  1  0.41820009  0.27098547  0.85760894  1
  C  C188  1  0.26458544  0.39087183  0.81534803  1
  O  O189  1  0.38696702  0.21302751  0.86775331  1
  O  O190  1  0.33378934  0.41475312  0.72047086  1
  Na  Na191  1  0.35789286  0.42653412  0.98190484  1
  O  O192  1  0.46840455  0.27630847  0.52287358  1
  O  O193  1  0.43692703  0.49858414  0.98403128  1
  Zn  Zn194  1  0.36122743  0.16882172  0.98851046  1
  C  C195  1  0.49954462  0.34368273  0.89152441  1
  O  O196  1  0.25250243  0.45790054  0.68539322  1
  C  C197  1  0.25026880  0.34056365  0.93412986  1
  C  C198  1  0.39950506  0.63582810  0.20648192  1
  C  C199  1  0.29953051  0.91037023  0.17033052  1
  C  C200  1  0.31652664  0.61925767  0.02375628  1
  O  O201  1  0.28526285  0.93188649  0.40196219  1
  O  O202  1  0.37921305  0.54549181  0.46099931  1
  O  O203  1  0.29106797  0.60479846  0.34662908  1
  C  C204  1  0.41685061  0.84843570  0.47156308  1
  O  O205  1  0.31635937  0.84702355  0.20282703  1
  C  C206  1  0.40344558  0.91580259  0.43193982  1
  O  O207  1  0.37602352  0.71149663  0.08431902  1
  C  C208  1  0.33756972  0.59035311  0.09707503  1
  Zn  Zn209  1  0.37673197  0.89323806  0.03277509  1
  O  O210  1  0.33397570  0.94690810  0.12540844  1
  O  O211  1  0.43072087  0.68952085  0.23469319  1
  Na  Na212  1  0.45775523  0.62780510  0.38311810  1
  O  O213  1  0.36915362  0.77830998  0.36854335  1
  O  O214  1  0.43165952  0.84790320  0.12672054  1
  C  C215  1  0.46679422  0.88746239  0.16668355  1
  O  O216  1  0.39731610  0.57410697  0.24433305  1
  Zn  Zn217  1  0.39405186  0.80118648  0.25340204  1
  C  C218  1  0.37124838  0.64878057  0.12897088  1
  C  C219  1  0.31703787  0.53531942  0.35146895  1
  H  H220  1  0.37692655  0.91896807  0.37664771  1
  O  O221  1  0.45716671  0.89448416  0.24094249  1
  C  C222  1  0.39325464  0.78073290  0.43760908  1
  H  H223  1  0.32598008  0.53622703  0.12860139  1
  C  C224  1  0.34144705  0.69206888  0.01971954  1
  O  O225  1  0.39680206  0.71896683  0.47925732  1
  C  C226  1  0.25814944  0.59523704  0.28370435  1
  C  C227  1  0.25638261  0.52484050  0.24330334  1
  C  C228  1  0.42158688  0.97473905  0.48620988  1
  C  C229  1  0.35920861  0.50105737  0.40213875  1
  H  H230  1  0.28837330  0.59121608  0.97969116  1
  C  C231  1  0.44404783  0.93734424  0.55278411  1
  O  O232  1  0.29879853  0.60895133  0.75114325  1
  C  C233  1  0.28893563  0.83583012  0.79865423  1
  O  O234  1  0.47229025  0.65050832  0.83725291  1
  O  O235  1  0.29848615  0.71032276  0.89349513  1
  Na  Na236  1  0.41756371  0.79647728  0.82138964  1
  O  O237  1  0.48170831  0.95890793  0.68393037  1
  C  C238  1  0.45861957  0.98360399  0.62116780  1
  Na  Na239  1  0.32051911  0.88704349  0.54565912  1
  C  C240  1  0.26580144  0.98142381  0.95536239  1
  C  C241  1  0.32228812  0.74116553  0.73409899  1
  O  O242  1  0.33749568  0.79793891  0.69466289  1
  C  C243  1  0.28979660  0.74771021  0.81143686  1
  C  C244  1  0.32986708  0.65831738  0.71706536  1
  C  C245  1  0.33199739  0.73749621  0.95176017  1
  Zn  Zn246  1  0.34331688  0.62652145  0.53186955  1
  O  O247  1  0.35758085  0.80009074  0.94566643  1
  O  O248  1  0.36671801  0.63214443  0.66862887  1
  C  C249  1  0.30151115  0.94704986  0.71459985  1
  O  O250  1  0.35910315  0.96933824  0.93554350  1
  C  C251  1  0.30816544  0.86670264  0.74069413  1
  C  C252  1  0.47216666  0.59941228  0.90175564  1
  O  O253  1  0.32007032  0.96831837  0.64642691  1
  H  H254  1  0.26207288  0.87205572  0.84200101  1
  O  O255  1  0.44536895  0.85705017  0.54631635  1
  O  O256  1  0.40433126  0.51122841  0.86009159  1
  O  O257  1  0.47569257  0.92224463  0.97200023  1
  Na  Na258  1  0.43490105  0.51962591  0.73022769  1
  C  C259  1  0.43726995  0.53324091  0.91696305  1
  O  O260  1  0.25628047  0.63279301  0.53401188  1
  O  O261  1  0.25607311  0.90663214  0.97684026  1
  C  C262  1  0.49062797  0.98357631  0.93101495  1
  O  O263  1  0.27860417  0.99422546  0.75949575  1
  O  O264  1  0.49104344  0.59417159  0.59750394  1
  O  O265  1  0.56458533  0.21079789  0.11424528  1
  O  O266  1  0.66219370  0.05436970  0.03560698  1
  O  O267  1  0.65947641  0.05890355  0.16768444  1
  C  C268  1  0.56792011  0.25876244  0.05941797  1
  C  C269  1  0.73009558  0.38158562  0.28841053  1
  C  C270  1  0.68021183  0.41880549  0.27479753  1
  O  O271  1  0.58542073  0.26808340  0.34916978  1
  Zn  Zn272  1  0.63672052  0.16062693  0.41452951  1
  O  O273  1  0.70235154  0.07761166  0.38126353  1
  Na  Na274  1  0.66329807  0.26483952  0.18244642  1
  O  O275  1  0.67199889  0.25590724  0.35115392  1
  C  C276  1  0.51292827  0.09911178  0.38281449  1
  H  H277  1  0.59578364  0.40793569  0.29741630  1
  C  C278  1  0.63111288  0.30220662  0.33381595  1
  O  O279  1  0.51808345  0.49099386  0.34209178  1
  H  H280  1  0.73094857  0.32377476  0.31330013  1
  C  C281  1  0.64018764  0.04173297  0.10000346  1
  O  O282  1  0.56080264  0.10351074  0.35607165  1
  C  C283  1  0.63553780  0.37715680  0.30141614  1
  O  O284  1  0.61452600  0.30256415  0.05670560  1
  H  H285  1  0.67536056  0.48064525  0.25175757  1
  O  O286  1  0.74244195  0.29888311  0.04379995  1
  H  H287  1  0.52535390  0.32289737  0.30840817  1
  C  C288  1  0.52403207  0.28018265  0.00629288  1
  Na  Na289  1  0.50500531  0.11169652  0.06182499  1
  C  C290  1  0.74630724  0.07684964  0.33966097  1
  O  O291  1  0.74785261  0.02900526  0.27939410  1
  O  O292  1  0.66021028  0.21427447  0.88275022  1
  C  C293  1  0.73721787  0.45839023  0.51327187  1
  H  H294  1  0.57052890  0.30289182  0.51284351  1
  Zn  Zn295  1  0.67570036  0.30179554  0.96470725  1
  H  H296  1  0.72457555  0.37672940  0.68586532  1
  C  C297  1  0.73473100  0.41390602  0.56586572  1
  C  C298  1  0.56889460  0.21804534  0.81246635  1
  C  C299  1  0.58813318  0.12472500  0.90043569  1
  O  O300  1  0.64450101  0.11632308  0.52901341  1
  C  C301  1  0.53502283  0.10985501  0.86672542  1
  H  H302  1  0.57622905  0.37380831  0.95868537  1
  C  C303  1  0.58091115  0.43470254  0.65032495  1
  H  H304  1  0.65531853  0.38047675  0.58704718  1
  C  C305  1  0.61522593  0.05552255  0.64933610  1
  Na  Na306  1  0.66261833  0.18110049  0.71214229  1
  H  H307  1  0.53085435  0.09145306  0.69364117  1
  H  H308  1  0.60688609  0.08747079  0.94511581  1
  O  O309  1  0.67828744  0.41155177  0.90357963  1
  O  O310  1  0.57100033  0.26674894  0.76481256  1
  O  O311  1  0.57081511  0.16415844  0.59056160  1
  C  C312  1  0.51434225  0.36958640  0.59901136  1
  C  C313  1  0.61199314  0.19046306  0.86777031  1
  C  C314  1  0.60842930  0.38620328  0.59855496  1
  C  C315  1  0.56368556  0.34373729  0.56273772  1
  C  C316  1  0.56989727  0.05806926  0.70303342  1
  C  C317  1  0.60897552  0.11380647  0.58552703  1
  O  O318  1  0.65811997  0.01112143  0.66228716  1
  C  C319  1  0.61713931  0.49107919  0.69037562  1
  C  C320  1  0.67298541  0.47240113  0.94647941  1
  O  O321  1  0.52123895  0.42550898  0.65298514  1
  C  C322  1  0.53962838  0.33664901  0.95469943  1
  C  C323  1  0.73601037  0.35854823  0.62470088  1
  H  H324  1  0.50169562  0.37077964  0.83229341  1
  C  C325  1  0.50704322  0.04259487  0.90020797  1
  O  O326  1  0.51925497  0.16133612  0.81260391  1
  O  O327  1  0.62385172  0.48926193  0.96647234  1
  C  C328  1  0.58608515  0.00373772  0.76256621  1
  Na  Na329  1  0.51309881  0.92148843  0.37127409  1
  C  C330  1  0.51966299  0.90462500  0.04392593  1
  C  C331  1  0.54188001  0.72664743  0.29703644  1
  O  O332  1  0.67620597  0.85454286  0.16651445  1
  C  C333  1  0.70805662  0.58380712  0.01111249  1
  H  H334  1  0.53470341  0.84567715  0.02278861  1
  C  C335  1  0.57031017  0.95753241  0.03528711  1
  C  C336  1  0.71405277  0.86082332  0.11421385  1
  O  O337  1  0.52655111  0.75890051  0.34634620  1
  C  C338  1  0.51411291  0.92117102  0.13365095  1
  Zn  Zn339  1  0.68682602  0.95512675  0.24711561  1
  O  O340  1  0.54776102  0.96812788  0.16507735  1
  O  O341  1  0.69781119  0.87477480  0.38365555  1
  H  H342  1  0.63593576  0.76206546  0.07707633  1
  O  O343  1  0.70959638  0.54272055  0.41475853  1
  C  C344  1  0.61093803  0.85126958  0.46015744  1
  C  C345  1  0.72031756  0.80486486  0.04473606  1
  O  O346  1  0.62199041  0.92322115  0.33717383  1
  H  H347  1  0.66104028  0.74981270  0.43837683  1
  C  C348  1  0.64836249  0.88326336  0.38720778  1
  C  C349  1  0.67085474  0.76628729  0.03167532  1
  H  H350  1  0.66659924  0.60178129  0.03533253  1
  C  C351  1  0.62907107  0.77847571  0.47489463  1
  O  O352  1  0.55216606  0.59243411  0.48767707  1
  O  O353  1  0.57440779  0.88738956  0.49367242  1
  O  O354  1  0.74631376  0.91620604  0.12426126  1
  C  C355  1  0.74998892  0.50550512  0.44282183  1
  C  C356  1  0.58828268  0.99164294  0.09109945  1
  H  H357  1  0.51904457  0.58619105  0.01948306  1
  C  C358  1  0.53108671  0.77329986  0.82627567  1
  Na  Na359  1  0.55369483  0.87863580  0.64222301  1
  O  O360  1  0.66932227  0.50157517  0.66308269  1
  O  O361  1  0.70028916  0.65870088  0.58716287  1
  Na  Na362  1  0.65081086  0.53174494  0.52813745  1
  O  O363  1  0.62507763  0.78651894  0.69035168  1
  H  H364  1  0.57413418  0.71613696  0.96265110  1
  H  H365  1  0.57117345  0.70163515  0.52531064  1
  H  H366  1  0.63936618  0.69041517  0.92796365  1
  C  C367  1  0.65839600  0.69282619  0.58727678  1
  Na  Na368  1  0.73597204  0.78471019  0.68928922  1
  O  O369  1  0.63517697  0.92762519  0.87735257  1
  C  C370  1  0.61122794  0.73472452  0.54226750  1
  C  C371  1  0.72392804  0.74796681  0.93028664  1
  C  C372  1  0.53804081  0.68541033  0.93404105  1
  C  C373  1  0.67028541  0.73000590  0.95672719  1
  C  C374  1  0.52159361  0.59276130  0.54341249  1
  H  H375  1  0.61304689  0.87911714  0.86497069  1
  C  C376  1  0.63825194  0.97845030  0.74260890  1
  C  C377  1  0.62379090  0.75077697  0.62961495  1
  Na  Na378  1  0.70434581  0.53939344  0.79953359  1
  C  C379  1  0.66627862  0.93154156  0.79923654  1
  O  O380  1  0.70974380  0.67772343  0.81624769  1
  O  O381  1  0.71139166  0.89872861  0.79713365  1
  C  C382  1  0.51331212  0.70021160  0.86015547  1
  O  O383  1  0.57141506  0.80616696  0.85795735  1
  C  C384  1  0.51146092  0.61723518  0.96184427  1
  O  O385  1  0.59840189  0.53196644  0.74134588  1
  H  H386  1  0.58725128  0.96137312  0.97353889  1
  C  C387  1  0.74285000  0.72159774  0.85392190  1
  Na  Na388  1  0.71661753  0.96280003  0.97032275  1
  C  C389  1  0.72179706  0.52138878  0.96212560  1
  H  H390  1  0.56427634  0.98400077  0.82108619  1
  O  O391  1  0.50642000  0.79762582  0.76187451  1
  C  C392  1  0.83044142  0.37180078  0.31194791  1
  O  O393  1  0.80535025  0.16056095  0.42336645  1
  O  O394  1  0.82457720  0.30701246  0.32810752  1
  C  C395  1  0.78395863  0.11152249  0.11289677  1
  C  C396  1  0.95743642  0.22671375  0.21985535  1
  O  O397  1  0.96090551  0.43904760  0.45001729  1
  C  C398  1  0.77293700  0.17042094  0.05720087  1
  C  C399  1  0.79643583  0.12063401  0.35630993  1
  C  C400  1  0.93608315  0.48218525  0.14803296  1
  O  O401  1  0.94509782  0.29214869  0.24341751  1
  C  C402  1  0.86229760  0.18532068  0.40731178  1
  Zn  Zn403  1  0.95296251  0.34401099  0.35892516  1
  C  C404  1  0.78171113  0.42017670  0.27148471  1
  C  C405  1  0.84089726  0.11090027  0.30202561  1
  C  C406  1  0.89524383  0.23163073  0.46065521  1
  O  O407  1  0.94629283  0.25218369  0.44674314  1
  H  H408  1  0.83987379  0.07431565  0.24915080  1
  C  C409  1  0.80184201  0.04988385  0.06354065  1
  C  C410  1  0.88393237  0.15460549  0.33846465  1
  O  O411  1  0.92779242  0.18662733  0.17931072  1
  H  H412  1  0.92532754  0.16719214  0.31727975  1
  Na  Na413  1  0.85496735  0.31569238  0.14900116  1
  O  O414  1  0.75978925  0.25788753  0.16431161  1
  C  C415  1  0.99497689  0.46137805  0.13000189  1
  O  O416  1  0.87715623  0.31442731  0.00832088  1
  O  O417  1  0.87713617  0.40359099  0.32220029  1
  H  H418  1  0.78054537  0.11450412  0.17623621  1
  O  O419  1  0.89974295  0.43784216  0.12594251  1
  C  C420  1  0.75775923  0.24461068  0.08720123  1
  Na  Na421  1  0.98212423  0.07800136  0.13423997  1
  Na  Na422  1  0.81045996  0.36093661  0.47947340  1
  O  O423  1  0.78512273  0.47939541  0.23992955  1
  C  C424  1  0.92945909  0.49149777  0.47411179  1
  O  O425  1  0.93536146  0.01742235  0.45341545  1
  H  H426  1  0.99551273  0.31981115  0.49980022  1
  O  O427  1  0.97214439  0.19962714  0.00568580  1
  Na  Na428  1  0.88788283  0.42092770  0.88580270  1
  O  O429  1  0.87270704  0.25544148  0.52749723  1
  O  O430  1  0.91524957  0.11999779  0.65439192  1
  O  O431  1  0.84854419  0.27728227  0.88980631  1
  C  C432  1  0.85803871  0.48555656  0.65953365  1
  O  O433  1  0.77956690  0.15189463  0.97728883  1
  O  O434  1  0.76653247  0.23950368  0.56886521  1
  H  H435  1  0.87981585  0.36892110  0.71190236  1
  C  C436  1  0.76491051  0.25008733  0.70459522  1
  C  C437  1  0.91136362  0.40741990  0.58729431  1
  C  C438  1  0.88052969  0.41208589  0.66115148  1
  C  C439  1  0.80781713  0.03527319  0.91446848  1
  H  H440  1  0.91799591  0.19301425  0.81428080  1
  O  O441  1  0.80799866  0.07063722  0.84699106  1
  O  O442  1  0.81997786  0.46713732  0.78972043  1
  O  O443  1  0.78997938  0.18439117  0.71143353  1
  O  O444  1  0.80656187  0.04957958  0.58559597  1
  C  C445  1  0.96953718  0.01536694  0.71271602  1
  Zn  Zn446  1  0.81195372  0.19060919  0.83647166  1
  C  C447  1  0.93905317  0.18374544  0.87291338  1
  O  O448  1  0.96232202  0.39417079  0.78632558  1
  C  C449  1  0.93109719  0.21896122  0.94743819  1
  C  C450  1  0.92134581  0.04790309  0.67019159  1
  H  H451  1  0.93561499  0.35967304  0.55881199  1
  C  C452  1  0.98758669  0.13589350  0.88215120  1
  C  C453  1  0.88474002  0.27058595  0.95106511  1
  Zn  Zn454  1  0.84142998  0.16541302  0.60659110  1
  C  C455  1  0.90082236  0.47801143  0.54886445  1
  C  C456  1  0.75536995  0.28222201  0.62381755  1
  C  C457  1  0.79659986  0.07821315  0.98573399  1
  H  H458  1  0.98258864  0.28179053  0.71500131  1
  O  O459  1  0.75088316  0.27970702  0.76622595  1
  Na  Na460  1  0.86347687  0.55635295  0.32247506  1
  C  C461  1  0.85896830  0.71531461  0.37797320  1
  Na  Na462  1  0.78706614  0.94527439  0.44270308  1
  O  O463  1  0.92791811  0.55639651  0.43891372  1
  O  O464  1  0.89137936  0.73318890  0.43825269  1
  C  C465  1  0.76105779  0.61754765  0.02650472  1
  O  O466  1  0.96680574  0.72747173  0.08300652  1
  Zn  Zn467  1  0.89821945  0.65867729  0.13855046  1
  H  H468  1  0.77116075  0.68190906  0.35544870  1
  O  O469  1  0.84843926  0.68959548  0.23777394  1
  O  O470  1  0.92924650  0.72981375  0.27396519  1
  C  C471  1  0.88123180  0.71585713  0.29501771  1
  H  H472  1  0.82336191  0.82463771  0.20093569  1
  C  C473  1  0.88866438  0.92284000  0.28121265  1
  O  O474  1  0.92446463  0.54356395  0.18166173  1
  C  C475  1  0.86958502  0.84891701  0.08222521  1
  C  C476  1  0.80606255  0.69369791  0.39923503  1
  C  C477  1  0.91479193  0.89831848  0.07290067  1
  C  C478  1  0.89438457  0.90655511  0.19978562  1
  O  O479  1  0.93108067  0.94096217  0.13491105  1
  O  O480  1  0.85492746  0.89514190  0.32525838  1
  H  H481  1  0.77035135  0.67161164  0.05999979  1
  C  C482  1  0.93420811  0.99976946  0.38568372  1
  C  C483  1  0.85732590  0.85500690  0.16653443  1
  H  H484  1  0.85028322  0.81262689  0.03257898  1
  C  C485  1  0.80089251  0.69512098  0.48546488  1
  O  O486  1  0.93342244  0.98349029  0.31505445  1
  O  O487  1  0.87151581  0.66215527  0.01894233  1
  H  H488  1  0.81319675  0.99133437  0.08056798  1
  Na  Na489  1  0.99942500  0.84158468  0.22564142  1
  O  O490  1  0.79926638  0.51184219  0.41932213  1
  C  C491  1  0.79970162  0.57297804  0.98303052  1
  C  C492  1  0.93740613  0.89193993  0.99349612  1
  C  C493  1  0.80567237  0.91061406  0.62767635  1
  C  C494  1  0.86683825  0.73093664  0.59184481  1
  O  O495  1  0.75587327  0.79490454  0.98063675  1
  O  O496  1  0.82076744  0.88038970  0.69210288  1
  C  C497  1  0.85719892  0.59267461  0.98424319  1
  H  H498  1  0.76485797  0.67447516  0.52376174  1
  O  O499  1  0.92072746  0.84243974  0.94176218  1
  C  C500  1  0.96394041  0.66853097  0.78786592  1
  O  O501  1  0.78944867  0.73944093  0.81880045  1
  O  O502  1  0.91864148  0.74363635  0.61006014  1
  O  O503  1  0.86715280  0.52508386  0.59066456  1
  Zn  Zn504  1  0.85476591  0.66991529  0.76753387  1
  O  O505  1  0.80030922  0.57542030  0.72818579  1
  O  O506  1  0.92216523  0.70505536  0.83716097  1
  O  O507  1  0.93985981  0.61994750  0.74333672  1
  H  H508  1  0.89517811  0.92624259  0.66543604  1
  O  O509  1  0.83288518  0.72279323  0.65164892  1
  O  O510  1  0.76963681  0.88286467  0.58573438  1
  Zn  Zn511  1  0.94220889  0.71707359  0.95701374  1
  Na  Na512  1  0.96001821  0.62877558  0.55724315  1
  O  O513  1  0.81542578  0.96502233  0.92093528  1
  C  C514  1  0.83139558  0.99525396  0.61775295  1
  Na  Na515  1  0.90509389  0.97155624  0.84260720  1
  O  O516  1  0.89113980  0.54895912  0.95354397  1
  C  C517  1  0.85277249  0.71993040  0.50922830  1
  O  O518  1  0.97591633  0.93924121  0.97008171  1
  C  C519  1  0.88289012  0.98838340  0.65240098  1
  O  O520  1  0.77456679  0.51225784  0.94165706  1
  C  C521  1  0.82528981  0.50840892  0.73012518  1
