# generated using pymatgen
data_CuH6(C3O)4
_symmetry_space_group_name_H-M   'P 1'
_cell_length_a   9.95922463
_cell_length_b   21.71327166
_cell_length_c   20.70411690
_cell_angle_alpha   90.00000000
_cell_angle_beta   90.00000000
_cell_angle_gamma   90.00000000
_symmetry_Int_Tables_number   1
_chemical_formula_structural   CuH6(C3O)4
_chemical_formula_sum   'Cu16 H96 C192 O64'
_cell_volume   4477.21041426
_cell_formula_units_Z   16
loop_
 _symmetry_equiv_pos_site_id
 _symmetry_equiv_pos_as_xyz
  1  'x, y, z'
loop_
 _atom_site_type_symbol
 _atom_site_label
 _atom_site_symmetry_multiplicity
 _atom_site_fract_x
 _atom_site_fract_y
 _atom_site_fract_z
 _atom_site_occupancy
  C  C0  1  0.14460736  0.29381193  0.12412141  1
  H  H1  1  0.19829351  0.32753482  0.09253291  1
  C  C2  1  0.14371996  0.21303082  0.20559198  1
  C  C3  1  0.46303448  0.46164300  0.11112765  1
  H  H4  1  0.16781146  0.20270406  0.02460775  1
  C  C5  1  0.18811533  0.15431880  0.03887319  1
  C  C6  1  0.36235581  0.26502984  0.15970301  1
  C  C7  1  0.30400604  0.07930796  0.11050260  1
  C  C8  1  0.06267193  0.43653709  0.13644235  1
  C  C9  1  0.24066676  0.02810174  0.08420881  1
  C  C10  1  0.28359668  0.13996882  0.08475149  1
  H  H11  1  0.37459366  0.07236092  0.15091352  1
  C  C12  1  0.30118641  0.49735041  0.01810126  1
  O  O13  1  0.44035523  0.23377459  0.19547826  1
  C  C14  1  0.21154146  0.16562356  0.24117407  1
  H  H15  1  0.34360575  0.17485489  0.10860779  1
  H  H16  1  0.12185501  0.40431754  0.10263147  1
  C  C17  1  0.21371907  0.25691457  0.16838519  1
  C  C18  1  0.12267630  0.45547988  0.19397886  1
  O  O19  1  0.40814677  0.30005069  0.11933823  1
  C  C20  1  0.15191205  0.03734832  0.03136826  1
  H  H21  1  0.21081429  0.43043067  0.21018456  1
  H  H22  1  0.31955245  0.15787920  0.23924221  1
  C  C23  1  0.00646091  0.29737219  0.12494653  1
  C  C24  1  0.12132171  0.10136770  0.01181960  1
  C  C25  1  0.35612929  0.49904383  0.08218527  1
  H  H26  1  0.00781066  0.39234231  0.24616464  1
  O  O27  1  0.47494749  0.47263386  0.37531910  1
  C  C28  1  0.09568041  0.26000509  0.36762135  1
  O  O29  1  0.43010444  0.30692634  0.30463160  1
  Cu  Cu30  1  0.30749988  0.44469839  0.37521358  1
  O  O31  1  0.38962434  0.23261341  0.37020142  1
  C  C32  1  0.34403593  0.27328963  0.33659805  1
  O  O33  1  0.26201511  0.48805388  0.29755592  1
  H  H34  1  0.05765308  0.15027308  0.48721964  1
  C  C35  1  0.13737392  0.12535183  0.27975462  1
  H  H36  1  0.24139765  0.20825083  0.42320349  1
  C  C37  1  0.13413793  0.21716325  0.41622238  1
  C  C38  1  0.16923021  0.33391804  0.28567089  1
  O  O39  1  0.14148669  0.41385228  0.39691400  1
  C  C40  1  0.20079571  0.29010698  0.32992315  1
  H  H41  1  0.18334789  0.08221631  0.30039298  1
  C  C42  1  0.09898108  0.43812529  0.44947091  1
  C  C43  1  0.03338902  0.18644861  0.45137832  1
  O  O44  1  0.46837818  0.05666802  0.26379180  1
  O  O45  1  0.17749746  0.45511202  0.49272831  1
  O  O46  1  0.45573249  0.49639273  0.47672689  1
  C  C47  1  0.03469006  0.35199902  0.27433374  1
  H  H48  1  0.26105484  0.35405887  0.26120004  1
  C  C49  1  0.23297129  0.17532512  0.59985014  1
  O  O50  1  0.27812822  0.19561174  0.54953906  1
  H  H51  1  0.20901223  0.34598833  0.61217893  1
  O  O52  1  0.06447799  0.04104609  0.55197959  1
  H  H53  1  0.45290154  0.11701689  0.53879988  1
  C  C54  1  0.14659404  0.48893149  0.67606906  1
  Cu  Cu55  1  0.21583488  0.04707558  0.60017069  1
  H  H56  1  0.14199090  0.13376428  0.71256143  1
  C  C57  1  0.08624530  0.17393829  0.69696103  1
  O  O58  1  0.28811071  0.12575227  0.62461641  1
  C  C59  1  0.11677975  0.20029694  0.63797650  1
  C  C60  1  0.17315858  0.38045644  0.64801886  1
  H  H61  1  0.26854293  0.45388879  0.59245499  1
  C  C62  1  0.20451797  0.44305580  0.63562277  1
  O  O63  1  0.12248750  0.03847524  0.68357170  1
  O  O64  1  0.33703226  0.03530926  0.52983104  1
  H  H65  1  0.15305420  0.26662675  0.52681151  1
  C  C66  1  0.09614367  0.36193135  0.70369231  1
  H  H67  1  0.07957705  0.31137584  0.71134201  1
  C  C68  1  0.05993634  0.46898920  0.72934523  1
  C  C69  1  0.06216625  0.27850393  0.55471784  1
  H  H70  1  0.05370176  0.48486190  0.57462497  1
  C  C71  1  0.03635798  0.25241830  0.61733190  1
  C  C72  1  0.02706434  0.40503299  0.74201316  1
  C  C73  1  0.34787729  0.44602507  0.98067401  1
  H  H74  1  0.36061324  0.08969335  0.94112775  1
  C  C75  1  0.47720559  0.01673156  0.98406822  1
  C  C76  1  0.31359635  0.44217154  0.91421446  1
  H  H77  1  0.34226249  0.40318845  0.88627700  1
  C  C78  1  0.45313214  0.07837825  0.97023582  1
  O  O79  1  0.02696228  0.21273934  0.95142532  1
  O  O80  1  0.41057015  0.19569176  0.92771864  1
  C  C81  1  0.01253440  0.10560568  0.96717827  1
  H  H82  1  0.40430863  0.40684535  0.99799884  1
  C  C83  1  0.22026745  0.48543717  0.89006438  1
  H  H84  1  0.19416479  0.47753235  0.84213733  1
  H  H85  1  0.10815689  0.59732618  0.13676187  1
  Cu  Cu86  1  0.35098112  0.91693375  0.22439334  1
  O  O87  1  0.19714293  0.90304211  0.05347714  1
  C  C88  1  0.12890457  0.57157664  0.04278360  1
  C  C89  1  0.17463423  0.56917589  0.10638110  1
  O  O90  1  0.16594106  0.94258377  0.21422360  1
  C  C91  1  0.01952570  0.61509151  0.02762784  1
  O  O92  1  0.45488839  0.98425539  0.19319403  1
  C  C93  1  0.28794730  0.53616801  0.12591961  1
  H  H94  1  0.31344808  0.53533548  0.17809530  1
  O  O95  1  0.19299180  0.75766381  0.14238675  1
  H  H96  1  0.36501061  0.78469165  0.08324885  1
  C  C97  1  0.27959310  0.74230019  0.18928282  1
  C  C98  1  0.42397023  0.74839941  0.17712167  1
  Cu  Cu99  1  0.07688494  0.71067155  0.10746808  1
  C  C100  1  0.44956207  0.77080643  0.11454310  1
  C  C101  1  0.10563725  0.92022335  0.01931470  1
  H  H102  1  0.25708647  0.97693600  0.10097398  1
  C  C103  1  0.06934172  0.50103275  0.23542291  1
  O  O104  1  0.24356158  0.72186857  0.24030640  1
  C  C105  1  0.07961808  0.98557525  0.00544604  1
  H  H106  1  0.38868913  0.71020872  0.30646407  1
  O  O107  1  0.11524530  0.55860287  0.32998870  1
  C  C108  1  0.49493015  0.71787272  0.28925068  1
  Cu  Cu109  1  0.28662615  0.52471284  0.48184308  1
  C  C110  1  0.40545555  0.65823497  0.45951789  1
  O  O111  1  0.35018334  0.64310087  0.40685904  1
  Cu  Cu112  1  0.29013154  0.91864647  0.33872860  1
  O  O113  1  0.16019558  0.97694686  0.31441074  1
  O  O114  1  0.15843027  0.85466274  0.35021238  1
  Cu  Cu115  1  0.19419456  0.59567959  0.39751285  1
  C  C116  1  0.07152824  0.84815090  0.39200749  1
  O  O117  1  0.09229583  0.84823786  0.45232124  1
  O  O118  1  0.42300112  0.86194402  0.35147903  1
  H  H119  1  0.47318406  0.81596933  0.42597389  1
  C  C120  1  0.15468854  0.51803482  0.29136656  1
  C  C121  1  0.09898036  0.96698899  0.26212912  1
  O  O122  1  0.02147360  0.62133275  0.43195905  1
  O  O123  1  0.34575730  0.69778859  0.49478081  1
  H  H124  1  0.03130190  0.99504601  0.39696286  1
  O  O125  1  0.26100803  0.97919206  0.73898388  1
  H  H126  1  0.13284860  0.64385581  0.70869972  1
  C  C127  1  0.21982175  0.79871633  0.59625622  1
  C  C128  1  0.21665748  0.76066711  0.69967022  1
  H  H129  1  0.12008265  0.73936523  0.68164907  1
  Cu  Cu130  1  0.18729217  0.68238263  0.53841730  1
  O  O131  1  0.13185401  0.76057790  0.57945440  1
  O  O132  1  0.26697258  0.83608359  0.55552704  1
  H  H133  1  0.41903777  0.69619398  0.58967500  1
  C  C134  1  0.41551968  0.98943022  0.52465759  1
  C  C135  1  0.14788685  0.99790221  0.72878979  1
  C  C136  1  0.10692662  0.59473414  0.71207854  1
  C  C137  1  0.24475099  0.57528671  0.61348032  1
  C  C138  1  0.16714393  0.55432606  0.66718440  1
  C  C139  1  0.29167693  0.79913075  0.65926881  1
  C  C140  1  0.42478825  0.82330952  0.67638876  1
  O  O141  1  0.31355301  0.54115345  0.57779292  1
  O  O142  1  0.25912736  0.63510329  0.61139884  1
  H  H143  1  0.46104083  0.87983013  0.59124545  1
  O  O144  1  0.02832947  0.64116455  0.53692054  1
  Cu  Cu145  1  0.20324153  0.90357069  0.50683305  1
  O  O146  1  0.04181920  0.94047521  0.54443317  1
  O  O147  1  0.36950146  0.93907499  0.50237156  1
  C  C148  1  0.46338886  0.80656669  0.74194318  1
  C  C149  1  0.26021026  0.74976175  0.76230817  1
  C  C150  1  0.03749583  0.97348768  0.76867562  1
  C  C151  1  0.07387037  0.92915385  0.81326899  1
  H  H152  1  0.09760228  0.56698845  0.90439770  1
  H  H153  1  0.40545977  0.98055660  0.97356284  1
  H  H154  1  0.19737523  0.72127877  0.79736818  1
  C  C155  1  0.40517653  0.76132881  0.85695953  1
  C  C156  1  0.16758782  0.53497282  0.92443400  1
  H  H157  1  0.18118874  0.91565614  0.81416297  1
  O  O158  1  0.31548915  0.73621800  0.88657067  1
  C  C159  1  0.37770790  0.77529227  0.78707458  1
  H  H160  1  0.00538580  0.85912262  0.87907672  1
  C  C161  1  0.19784527  0.53897140  0.99177082  1
  C  C162  1  0.00287658  0.51099252  0.77536697  1
  O  O163  1  0.02937489  0.88080310  0.98843221  1
  C  C164  1  0.02975891  0.57412363  0.76256950  1
  C  C165  1  0.99387709  0.21395054  0.20555374  1
  H  H166  1  0.95067231  0.33240667  0.09929329  1
  O  O167  1  0.74314268  0.30268557  0.11655974  1
  C  C168  1  0.68313622  0.04876633  0.04041150  1
  H  H169  1  0.72335314  0.20767107  0.04827444  1
  C  C170  1  0.94216902  0.46399457  0.11677325  1
  C  C171  1  0.90351991  0.44931922  0.04812084  1
  C  C172  1  0.78372222  0.26631755  0.16109506  1
  C  C173  1  0.74710508  0.15929534  0.05158872  1
  Cu  Cu174  1  0.64308881  0.42139231  0.20216523  1
  C  C175  1  0.87761486  0.07907991  0.10650173  1
  C  C176  1  0.85447707  0.14314402  0.09349146  1
  C  C177  1  0.65806326  0.11393713  0.02532702  1
  C  C178  1  0.79922311  0.03255700  0.07743941  1
  C  C179  1  0.92911217  0.25929268  0.16312711  1
  O  O180  1  0.69979154  0.23745634  0.19619897  1
  H  H181  1  0.95842138  0.06722298  0.13982674  1
  C  C182  1  0.92217051  0.17454739  0.24668207  1
  Cu  Cu183  1  0.57732782  0.34118834  0.11680567  1
  C  C184  1  0.52869064  0.02019134  0.23285931  1
  O  O185  1  0.50479516  0.41656613  0.07809087  1
  O  O186  1  0.50444534  0.46644830  0.16887270  1
  H  H187  1  0.90870735  0.17883639  0.12254895  1
  O  O188  1  0.80695294  0.48563939  0.01870771  1
  O  O189  1  0.78566140  0.38405884  0.24300983  1
  O  O190  1  0.95725970  0.41085060  0.01659928  1
  C  C191  1  0.59488598  0.00069967  0.01634653  1
  C  C192  1  0.67817267  0.01375717  0.23952432  1
  C  C193  1  0.68037280  0.06590618  0.34541198  1
  C  C194  1  0.75244240  0.02939054  0.29666546  1
  H  H195  1  0.91766527  0.05989055  0.46605020  1
  C  C196  1  0.67264649  0.47450664  0.44463234  1
  H  H197  1  0.94191289  0.42324802  0.35145779  1
  C  C198  1  0.85158833  0.24222658  0.38958230  1
  H  H199  1  0.81994576  0.18662585  0.47661056  1
  C  C200  1  0.79737668  0.34210105  0.28530300  1
  H  H201  1  0.70648451  0.44592748  0.34576700  1
  C  C202  1  0.75376549  0.45437363  0.39229508  1
  C  C203  1  0.86474537  0.05059424  0.42028953  1
  C  C204  1  0.93211994  0.01247803  0.37706463  1
  C  C205  1  0.88733642  0.44172852  0.39650311  1
  C  C206  1  0.73761680  0.07940093  0.40423801  1
  C  C207  1  0.95463675  0.27343460  0.35419305  1
  H  H208  1  0.74328510  0.24898804  0.38091278  1
  C  C209  1  0.89384696  0.20457505  0.44104766  1
  C  C210  1  0.93258140  0.32105923  0.30621466  1
  H  H211  1  0.68148484  0.10536710  0.44078062  1
  O  O212  1  0.69057246  0.31629104  0.30594231  1
  C  C213  1  0.95417243  0.45535516  0.45368917  1
  H  H214  1  0.57637149  0.08280753  0.33928188  1
  H  H215  1  0.93297552  0.10443932  0.32106110  1
  C  C216  1  0.88789286  0.00739370  0.31116089  1
  H  H217  1  0.96865244  0.32964544  0.47510257  1
  C  C218  1  0.99839513  0.13612638  0.28789486  1
  C  C219  1  0.53025617  0.47974234  0.43059438  1
  Cu  Cu220  1  0.56523352  0.27336391  0.25192616  1
  H  H221  1  0.81159991  0.17287580  0.25025145  1
  C  C222  1  0.98216644  0.19868199  0.73515884  1
  H  H223  1  0.74485640  0.34381629  0.65272400  1
  H  H224  1  0.93782118  0.05995500  0.68568966  1
  C  C225  1  0.82918386  0.32059651  0.62705355  1
  H  H226  1  0.69830919  0.09019686  0.67466788  1
  C  C227  1  0.76899284  0.16353936  0.57460266  1
  C  C228  1  0.56465078  0.10911464  0.55058837  1
  C  C229  1  0.85996827  0.03696402  0.71441789  1
  H  H230  1  0.94864611  0.11121751  0.58014991  1
  H  H231  1  0.78780506  0.37704101  0.54381810  1
  C  C232  1  0.72525599  0.05457091  0.71192706  1
  C  C233  1  0.91526388  0.27500729  0.65219593  1
  C  C234  1  0.62936753  0.16535201  0.55985652  1
  C  C235  1  0.88237059  0.47866653  0.50919944  1
  C  C236  1  0.77493508  0.05096298  0.56144519  1
  C  C237  1  0.62935161  0.05029112  0.55106814  1
  C  C238  1  0.85594424  0.34219042  0.56471771  1
  H  H239  1  0.81184158  0.20771498  0.59168120  1
  C  C240  1  0.84219328  0.10881455  0.57012219  1
  C  C241  1  0.89195538  0.24413554  0.71065888  1
  C  C242  1  0.73498817  0.48711864  0.50587194  1
  H  H243  1  0.57302276  0.20853654  0.55511542  1
  C  C244  1  0.96341113  0.31877401  0.52621325  1
  C  C245  1  0.94109085  0.49121488  0.56925757  1
  O  O246  1  0.69462141  0.29716576  0.73599596  1
  H  H247  1  0.51683055  0.04222209  0.74672207  1
  O  O248  1  0.84309598  0.16911396  0.91442454  1
  Cu  Cu249  1  0.72646540  0.22774699  0.88853891  1
  H  H250  1  0.96872579  0.17757747  0.78319390  1
  C  C251  1  0.94416225  0.05591458  0.93988020  1
  O  O252  1  0.76317835  0.22249653  0.80333342  1
  C  C253  1  0.53633436  0.12649654  0.99048234  1
  O  O254  1  0.61775217  0.22291035  0.95964526  1
  H  H255  1  0.85671870  0.06433711  0.90626893  1
  O  O256  1  0.88423942  0.44272419  0.84351328  1
  C  C257  1  0.62266221  0.02889584  0.75130483  1
  H  H258  1  0.95347622  0.39333382  0.77950400  1
  C  C259  1  0.51157382  0.18535129  0.95741187  1
  C  C260  1  0.92295312  0.49464102  0.83219647  1
  C  C261  1  0.95887071  0.16782833  0.94642723  1
  C  C262  1  0.77279238  0.25728817  0.75071552  1
  C  C263  1  0.75258612  0.53423143  0.13816071  1
  O  O264  1  0.83327698  0.78875751  0.04974627  1
  H  H265  1  0.60855405  0.60374166  0.15223762  1
  O  O266  1  0.71255682  0.91072191  0.04943840  1
  C  C267  1  0.69291774  0.58030110  0.17424877  1
  C  C268  1  0.52594857  0.73346843  0.22287784  1
  Cu  Cu269  1  0.85113009  0.86461044  0.00675479  1
  H  H270  1  0.59837184  0.80714457  0.05385461  1
  C  C271  1  0.89377201  0.96858433  0.19696274  1
  C  C272  1  0.66995688  0.73902611  0.19971836  1
  C  C273  1  0.75633669  0.98086265  0.19587895  1
  O  O274  1  0.97886782  0.64789379  0.07231216  1
  C  C275  1  0.82622572  0.77081620  0.10807135  1
  C  C276  1  0.69380262  0.75993374  0.13400280  1
  H  H277  1  0.87797595  0.74533864  0.23686941  1
  C  C278  1  0.61007739  0.93546751  0.02573715  1
  C  C279  1  0.94385174  0.52569869  0.21883919  1
  C  C280  1  0.58355347  0.77940394  0.09760062  1
  O  O281  1  0.93395981  0.76316587  0.13986757  1
  H  H282  1  0.71635044  0.51586032  0.09092665  1
  H  H283  1  0.83003682  0.98212602  0.07869595  1
  C  C284  1  0.87719202  0.51009960  0.15703597  1
  H  H285  1  0.95147800  0.94672773  0.15817114  1
  H  H286  1  0.70018051  0.96411618  0.15273046  1
  C  C287  1  0.75294596  0.59799256  0.23517373  1
  O  O288  1  0.51092637  0.90095406  0.00573078  1
  H  H289  1  0.73523672  0.87207714  0.24215894  1
  C  C290  1  0.77309264  0.73275221  0.24710973  1
  C  C291  1  0.95786277  0.98024362  0.25678200  1
  C  C292  1  0.92572479  0.84248111  0.37238916  1
  C  C293  1  0.86811353  0.56934894  0.25875978  1
  O  O294  1  0.50096013  0.87147805  0.25110832  1
  H  H295  1  0.96534595  0.86147879  0.27188951  1
  C  C296  1  0.61582575  0.61354467  0.42783512  1
  C  C297  1  0.65137734  0.84721731  0.33425172  1
  H  H298  1  0.80447502  0.58099545  0.39850868  1
  C  C299  1  0.53530203  0.63919671  0.47659054  1
  C  C300  1  0.60360115  0.71870236  0.33434560  1
  C  C301  1  0.58074857  0.81524865  0.44348647  1
  H  H302  1  0.57121685  0.60172124  0.38236550  1
  C  C303  1  0.89041104  0.85190836  0.30849430  1
  C  C304  1  0.83005858  0.82228592  0.41720179  1
  C  C305  1  0.68479582  0.82977674  0.40057807  1
  C  C306  1  0.75626695  0.85761709  0.29105714  1
  H  H307  1  0.70934114  0.63433497  0.26159731  1
  H  H308  1  0.91221592  0.58307507  0.30539908  1
  H  H309  1  0.58235191  0.70626098  0.38440378  1
  H  H310  1  0.81185117  0.71903465  0.35403850  1
  C  C311  1  0.75334748  0.60854264  0.43585051  1
  C  C312  1  0.73849037  0.71995498  0.31465815  1
  C  C313  1  0.51663866  0.85730384  0.31138651  1
  C  C314  1  0.81782524  0.62491887  0.49381902  1
  C  C315  1  0.96381452  0.62521406  0.48734606  1
  H  H316  1  0.58787219  0.90310475  0.49495329  1
  H  H317  1  0.95767497  0.78855350  0.49662352  1
  C  C318  1  0.85281378  0.80016225  0.48244063  1
  C  C319  1  0.73202224  0.67988358  0.66186750  1
  C  C320  1  0.74738704  0.78986513  0.52482430  1
  C  C321  1  0.80534956  0.65542314  0.61094187  1
  C  C322  1  0.62612355  0.88452491  0.65796912  1
  H  H323  1  0.52740632  0.78418838  0.53883365  1
  C  C324  1  0.74093270  0.64425956  0.54997696  1
  H  H325  1  0.52430660  0.71458099  0.68587609  1
  C  C326  1  0.59342956  0.69771857  0.64883625  1
  H  H327  1  0.67497650  0.54534747  0.65951350  1
  H  H328  1  0.68164761  0.92254944  0.63539444  1
  C  C329  1  0.77190918  0.94304701  0.52810032  1
  C  C330  1  0.59899433  0.65754490  0.53686531  1
  C  C331  1  0.63622806  0.94324915  0.51548152  1
  H  H332  1  0.90689019  0.63655443  0.61764545  1
  C  C333  1  0.67355819  0.85988038  0.71800996  1
  H  H334  1  0.76270401  0.67588165  0.71316533  1
  H  H335  1  0.78187054  0.76325576  0.56618488  1
  C  C336  1  0.98814847  0.99328079  0.54698607  1
  C  C337  1  0.72688619  0.52199708  0.61919407  1
  C  C338  1  0.53013176  0.68495395  0.59114931  1
  H  H339  1  0.55524712  0.53128264  0.55417602  1
  C  C340  1  0.66169277  0.51500473  0.55847919  1
  C  C341  1  0.60921850  0.79631079  0.50754829  1
  C  C342  1  0.84581707  0.99584759  0.54583883  1
  H  H343  1  0.83091261  0.90168216  0.51592884  1
  H  H344  1  0.91803754  0.51492658  0.67077397  1
  C  C345  1  0.86243809  0.50741007  0.62425243  1
  C  C346  1  0.55930523  0.99468236  0.53284367  1
  C  C347  1  0.50406228  0.86317084  0.63781409  1
  H  H348  1  0.77549503  0.87165610  0.73760576  1
  H  H349  1  0.99229602  0.60653480  0.80107543  1
  C  C350  1  0.79453894  0.96350602  0.80237859  1
  O  O351  1  0.62472059  0.88724178  0.88497240  1
  H  H352  1  0.65289794  0.80447042  0.80335858  1
  Cu  Cu353  1  0.87026473  0.53987179  0.95967901  1
  Cu  Cu354  1  0.50806671  0.84213395  0.94324664  1
  O  O355  1  0.79896210  0.83975694  0.92334347  1
  O  O356  1  0.51218577  0.78287997  0.88582092  1
  C  C357  1  0.74845195  0.88082982  0.88510462  1
  C  C358  1  0.84127047  0.91598557  0.84534788  1
  O  O359  1  0.95052469  0.61435558  0.97595252  1
  O  O360  1  0.87754923  0.54190249  0.86840073  1
  C  C361  1  0.65740794  0.97877474  0.79133245  1
  C  C362  1  0.90008492  0.99153834  0.76032172  1
  H  H363  1  0.57189617  0.95794539  0.81839835  1
  C  C364  1  0.98301477  0.99658043  0.95731328  1
  C  C365  1  0.97690466  0.89925607  0.84945802  1
  C  C366  1  0.60374129  0.81827290  0.75771774  1
  H  H367  1  0.94175346  0.95419511  0.93195374  1
