# generated using pymatgen
data_Zn2H5C14(NO4)2
_symmetry_space_group_name_H-M   'P 1'
_cell_length_a   12.47326480
_cell_length_b   12.28899111
_cell_length_c   24.73867963
_cell_angle_alpha   90.00000000
_cell_angle_beta   90.00000000
_cell_angle_gamma   90.00000000
_symmetry_Int_Tables_number   1
_chemical_formula_structural   Zn2H5C14(NO4)2
_chemical_formula_sum   'Zn16 H40 C112 N16 O64'
_cell_volume   3792.03981718
_cell_formula_units_Z   8
loop_
 _symmetry_equiv_pos_site_id
 _symmetry_equiv_pos_as_xyz
  1  'x, y, z'
loop_
 _atom_site_type_symbol
 _atom_site_label
 _atom_site_symmetry_multiplicity
 _atom_site_fract_x
 _atom_site_fract_y
 _atom_site_fract_z
 _atom_site_occupancy
  C  C0  1  0.17383883  0.36937619  0.17351824  1
  C  C1  1  0.28035700  0.18526236  0.13082772  1
  C  C2  1  0.36565897  0.34356239  0.01901900  1
  C  C3  1  0.23317868  0.19109773  0.18349922  1
  H  H4  1  0.41957907  0.37841596  0.04938606  1
  C  C5  1  0.27795284  0.27780781  0.03823041  1
  N  N6  1  0.19049692  0.28029261  0.20371414  1
  H  H7  1  0.22571005  0.13803964  0.21840061  1
  C  C8  1  0.19954215  0.36847894  0.11806875  1
  H  H9  1  0.12408407  0.42664707  0.19793213  1
  H  H10  1  0.30963095  0.10833248  0.11476793  1
  H  H11  1  0.18590248  0.43603197  0.09142660  1
  C  C12  1  0.25714337  0.27556073  0.09959070  1
  H  H13  1  0.16069463  0.17888063  0.00168970  1
  O  O14  1  0.41990508  0.46461609  0.15345784  1
  C  C15  1  0.03210615  0.49556384  0.01768821  1
  O  O16  1  0.44693314  0.24876225  0.33818768  1
  O  O17  1  0.17084776  0.48549190  0.47874118  1
  C  C18  1  0.38468941  0.25575360  0.49801521  1
  C  C19  1  0.46943021  0.24730868  0.28931447  1
  O  O20  1  0.45137202  0.33208725  0.26076804  1
  N  N21  1  0.47301017  0.20327959  0.47994695  1
  H  H22  1  0.36965675  0.33550527  0.47808856  1
  H  H23  1  0.24722777  0.06422059  0.45631736  1
  C  C24  1  0.33352785  0.09754729  0.55700409  1
  C  C25  1  0.09159635  0.08168830  0.64975023  1
  H  H26  1  0.20078713  0.20903256  0.62117535  1
  C  C27  1  0.18087468  0.12227910  0.62040677  1
  C  C28  1  0.24267703  0.05072901  0.58983920  1
  C  C29  1  0.14955832  0.47284563  0.52507096  1
  O  O30  1  0.08709902  0.39824868  0.54114976  1
  C  C31  1  0.43469344  0.05637071  0.53886928  1
  H  H32  1  0.04000055  0.12382332  0.67818978  1
  C  C33  1  0.31169829  0.20168410  0.53303795  1
  H  H34  1  0.23334448  0.24078181  0.54268654  1
  C  C35  1  0.23859089  0.17137896  0.77967459  1
  C  C36  1  0.15773274  0.16334903  0.82560215  1
  O  O37  1  0.03357387  0.41605126  0.86728872  1
  O  O38  1  0.47789493  0.06783235  0.93733674  1
  O  O39  1  0.18086066  0.41217611  0.81867896  1
  Zn  Zn40  1  0.34913923  0.36978183  0.83832150  1
  C  C41  1  0.06947553  0.02472390  0.88001785  1
  C  C42  1  0.10795068  0.36874888  0.84681133  1
  C  C43  1  0.10378334  0.24302359  0.85451585  1
  N  N44  1  0.13551919  0.05634889  0.83982092  1
  C  C45  1  0.03191001  0.22020409  0.89544433  1
  H  H46  1  0.45143479  0.43070577  0.95614599  1
  N  N47  1  0.32906439  0.33455636  0.92612835  1
  H  H48  1  0.23194300  0.22262942  0.90270623  1
  O  O49  1  0.25923214  0.08638961  0.75435094  1
  C  C50  1  0.01741580  0.10919412  0.90928559  1
  C  C51  1  0.26352157  0.25529647  0.94031796  1
  C  C52  1  0.39130931  0.37091177  0.96454590  1
  H  H53  1  0.13694299  0.46266902  0.95023661  1
  O  O54  1  0.28848736  0.25663900  0.77078387  1
  C  C55  1  0.22670311  0.23173110  0.99317743  1
  C  C56  1  0.13045664  0.49430560  0.99213701  1
  C  C57  1  0.21030804  0.88907605  0.11075879  1
  C  C58  1  0.16040869  0.94340168  0.20117857  1
  C  C59  1  0.31808557  0.84895055  0.17318787  1
  Zn  Zn60  1  0.44123819  0.78600740  0.21763624  1
  C  C61  1  0.20677714  0.90113232  0.04652736  1
  Zn  Zn62  1  0.35228293  0.68338326  0.08095343  1
  C  C63  1  0.13267659  0.93992637  0.14607349  1
  H  H64  1  0.13403049  0.65105829  0.12490868  1
  N  N65  1  0.29196812  0.82302094  0.12269369  1
  C  C66  1  0.25685675  0.89653624  0.21472563  1
  O  O67  1  0.16517177  0.83079533  0.01763351  1
  C  C68  1  0.46630884  0.55503193  0.16083336  1
  O  O69  1  0.25195715  0.97607400  0.02269389  1
  C  C70  1  0.22051510  0.55269554  0.01312831  1
  C  C71  1  0.12709678  0.60896541  0.08593352  1
  C  C72  1  0.02910696  0.98258505  0.13081563  1
  N  N73  1  0.22095695  0.60619405  0.05847256  1
  C  C74  1  0.03622499  0.55340840  0.06749851  1
  O  O75  1  0.00112351  0.99036838  0.08195443  1
  O  O76  1  0.44418223  0.60614468  0.20150556  1
  O  O77  1  0.00658883  0.54694906  0.21249037  1
  H  H78  1  0.10514772  0.98206062  0.23210511  1
  O  O79  1  0.00034946  0.71900463  0.22055686  1
  H  H80  1  0.38173450  0.76322109  0.44293487  1
  O  O81  1  0.23224012  0.93636131  0.31435489  1
  H  H82  1  0.02647527  0.60684039  0.44800050  1
  C  C83  1  0.30402261  0.80502625  0.45000090  1
  C  C84  1  0.28441230  0.90792348  0.27747038  1
  C  C85  1  0.20413173  0.75608094  0.45677092  1
  O  O86  1  0.38010274  0.87010342  0.28087134  1
  C  C87  1  0.12613588  0.92917155  0.46775865  1
  N  N88  1  0.31350170  0.91288199  0.45041122  1
  C  C89  1  0.10911737  0.81758987  0.46672833  1
  H  H90  1  0.18916624  0.66754832  0.45196830  1
  C  C91  1  0.22729146  0.97431420  0.45709927  1
  O  O92  1  0.39861639  0.50705725  0.49981461  1
  H  H93  1  0.05689610  0.98264787  0.47957264  1
  O  O94  1  0.19398136  0.81678288  0.71747460  1
  C  C95  1  0.30046865  0.61437637  0.56405247  1
  C  C96  1  0.32390073  0.69624241  0.59959893  1
  H  H97  1  0.40189495  0.74230655  0.59996550  1
  C  C98  1  0.19918562  0.55834535  0.56788772  1
  C  C99  1  0.23942552  0.71074216  0.63702103  1
  C  C100  1  0.11593891  0.90997309  0.61816439  1
  H  H101  1  0.08665432  0.82254868  0.62190969  1
  O  O102  1  0.35220597  0.83504434  0.68255113  1
  N  N103  1  0.11753985  0.57610533  0.59967864  1
  C  C104  1  0.26018509  0.79209765  0.68065144  1
  C  C105  1  0.13938742  0.66072268  0.63077775  1
  O  O106  1  0.46028937  0.66639337  0.52382237  1
  H  H107  1  0.24522136  0.87530407  0.56395650  1
  C  C108  1  0.20955134  0.93818924  0.58984061  1
  O  O109  1  0.46320503  0.62216625  0.72800220  1
  Zn  Zn110  1  0.47406276  0.80030773  0.73936844  1
  C  C111  1  0.38728976  0.59048618  0.52356185  1
  N  N112  1  0.05762213  0.97965373  0.64819697  1
  C  C113  1  0.02211366  0.67722188  0.66233994  1
  H  H114  1  0.45936885  0.97171383  0.55288554  1
  O  O115  1  0.00019581  0.61279742  0.69637942  1
  C  C116  1  0.07275659  0.90229013  0.88576865  1
  Zn  Zn117  1  0.21029850  0.92633477  0.78743098  1
  O  O118  1  0.36525557  0.86632252  0.80061786  1
  O  O119  1  0.46226707  0.75024742  0.97612321  1
  O  O120  1  0.34743983  0.95341201  0.87623398  1
  C  C121  1  0.40871443  0.91611883  0.84063296  1
  O  O122  1  0.11721029  0.84523732  0.85070461  1
  Zn  Zn123  1  0.37053994  0.93996491  0.96357184  1
  C  C124  1  0.48600480  0.54194284  0.75952584  1
  H  H125  1  0.30058946  0.56853701  0.99280971  1
  O  O126  1  0.01974451  0.85722879  0.92175791  1
  O  O127  1  0.43891836  0.52694795  0.80189902  1
  N  N128  1  0.54332946  0.16505395  0.20970848  1
  O  O129  1  0.80409340  0.42101337  0.14029092  1
  H  H130  1  0.87830962  0.35590249  0.06902489  1
  O  O131  1  0.67260439  0.11315299  0.08731102  1
  O  O132  1  0.95940027  0.00449184  0.16800014  1
  O  O133  1  0.65809702  0.43078157  0.18832886  1
  C  C134  1  0.58812163  0.09081989  0.17935312  1
  Zn  Zn135  1  0.90504729  0.41175122  0.21428536  1
  C  C136  1  0.59920452  0.14163997  0.12083926  1
  O  O137  1  0.53980601  0.21817335  0.10804420  1
  H  H138  1  0.69000385  0.32718024  0.03144972  1
  C  C139  1  0.85482733  0.39083444  0.02820553  1
  Zn  Zn140  1  0.50207025  0.32619822  0.17534748  1
  C  C141  1  0.71320334  0.46212122  0.14870054  1
  C  C142  1  0.75128600  0.37159849  0.00912064  1
  C  C143  1  0.80816092  0.46301408  0.32905238  1
  O  O144  1  0.85608950  0.30721907  0.27880309  1
  O  O145  1  0.75400331  0.27814706  0.34813069  1
  C  C146  1  0.57181898  0.05731380  0.28870702  1
  O  O147  1  0.65809112  0.41241824  0.42249005  1
  C  C148  1  0.80473302  0.34424468  0.31820842  1
  Zn  Zn149  1  0.59812047  0.27667629  0.38113643  1
  O  O150  1  0.59585129  0.10874155  0.38232558  1
  H  H151  1  0.57120148  0.07038230  0.48159236  1
  C  C152  1  0.57185026  0.03135136  0.34925631  1
  C  C153  1  0.53170251  0.15136988  0.26372613  1
  O  O154  1  0.88604356  0.24190724  0.70743025  1
  C  C155  1  0.70417419  0.46425052  0.66046361  1
  C  C156  1  0.84947888  0.30532524  0.67176159  1
  C  C157  1  0.75262044  0.37213929  0.68712335  1
  O  O158  1  0.82080991  0.48806913  0.58052773  1
  N  N159  1  0.70947093  0.33613695  0.73389132  1
  O  O160  1  0.90504374  0.32519273  0.63106107  1
  C  C161  1  0.57573508  0.47562468  0.73486912  1
  Zn  Zn162  1  0.97812824  0.46907266  0.60331034  1
  C  C163  1  0.80008496  0.04620526  0.55150089  1
  O  O164  1  0.86539367  0.10463862  0.56727396  1
  C  C165  1  0.50124262  0.10618116  0.50057358  1
  O  O166  1  0.64690747  0.23657972  0.81535779  1
  Zn  Zn167  1  0.80085796  0.22549097  0.78230635  1
  N  N168  1  0.70363364  0.42732158  0.97127170  1
  O  O169  1  0.64390983  0.06821583  0.96174042  1
  H  H170  1  0.77255986  0.03429706  0.89669540  1
  C  C171  1  0.59207103  0.31679637  0.80887839  1
  O  O172  1  0.89087110  0.08099035  0.80010522  1
  C  C173  1  0.94076512  0.09688164  0.95506953  1
  O  O174  1  0.90312215  0.00514176  0.97215638  1
  O  O175  1  0.51985880  0.34179008  0.83904387  1
  C  C176  1  0.57409958  0.04344881  0.92845613  1
  C  C177  1  0.62185857  0.38032610  0.75573218  1
  O  O178  1  0.90069029  0.18057416  0.97173629  1
  H  H179  1  0.98574753  0.28436636  0.91852085  1
  C  C180  1  0.76987551  0.48566001  0.94148373  1
  C  C181  1  0.92053765  0.45788940  0.99581747  1
  N  N182  1  0.51177722  0.65813481  0.08535158  1
  Zn  Zn183  1  0.90359607  0.87061378  0.21279635  1
  O  O184  1  0.74086316  0.83364848  0.19088985  1
  C  C185  1  0.55999282  0.59165029  0.11901826  1
  C  C186  1  0.74352785  0.59568273  0.07980056  1
  Zn  Zn187  1  0.65714940  0.97741299  0.03616254  1
  C  C188  1  0.58516711  0.70105610  0.05465626  1
  C  C189  1  0.69620766  0.67843672  0.04899000  1
  H  H190  1  0.82770250  0.56777251  0.07387458  1
  C  C191  1  0.66851274  0.55165688  0.11547413  1
  C  C192  1  0.77136583  0.74615719  0.01559606  1
  Zn  Zn193  1  0.99152143  0.86964982  0.00855155  1
  O  O194  1  0.70237120  0.91333650  0.11658784  1
  C  C195  1  0.69321703  0.91329421  0.16634666  1
  O  O196  1  0.51170282  0.88628187  0.02548436  1
  H  H197  1  0.96005035  0.55160773  0.09418548  1
  O  O198  1  0.87196656  0.73546944  0.01950688  1
  C  C199  1  0.97199054  0.62951818  0.23647154  1
  C  C200  1  0.51304397  0.78314590  0.01429482  1
  C  C201  1  0.63099981  0.99162197  0.20086688  1
  O  O202  1  0.57187255  0.93760320  0.36488636  1
  C  C203  1  0.61904525  0.97572855  0.25695255  1
  C  C204  1  0.79432004  0.64575288  0.36556284  1
  O  O205  1  0.61960247  0.58410710  0.42954037  1
  O  O206  1  0.84586856  0.85243097  0.37336910  1
  C  C207  1  0.89723180  0.61283600  0.28595937  1
  C  C208  1  0.88083893  0.81209579  0.33243849  1
  H  H209  1  0.75641718  0.69843175  0.39468166  1
  C  C210  1  0.86234210  0.68626862  0.32517069  1
  O  O211  1  0.92531457  0.87399749  0.29597500  1
  H  H212  1  0.64325179  0.90265264  0.27916836  1
  C  C213  1  0.75914541  0.53761202  0.36730144  1
  C  C214  1  0.96804074  0.66222104  0.46653752  1
  C  C215  1  0.86394788  0.62272240  0.47661963  1
  H  H216  1  0.83140362  0.53834962  0.46568293  1
  N  N217  1  0.87460931  0.50547160  0.29112717  1
  C  C218  1  0.67354597  0.51008950  0.40634343  1
  C  C219  1  0.99621514  0.77028751  0.47888698  1
  N  N220  1  0.78677243  0.68279787  0.49720454  1
  C  C221  1  0.69012364  0.88083959  0.71782148  1
  O  O222  1  0.73583039  0.98704594  0.53531295  1
  O  O223  1  0.76443905  0.92573409  0.69278614  1
  O  O224  1  0.63264934  0.81338447  0.69677220  1
  H  H225  1  0.58546779  0.58533709  0.66887943  1
  Zn  Zn226  1  0.93636600  0.90995070  0.68915637  1
  C  C227  1  0.61927008  0.51552184  0.68619573  1
  H  H228  1  0.92034922  0.92237796  0.51260300  1
  Zn  Zn229  1  0.63291353  0.62471571  0.51613867  1
  H  H230  1  0.74035133  0.82172492  0.52175835  1
  O  O231  1  0.68114638  0.59001335  0.59198475  1
  C  C232  1  0.81239181  0.78325563  0.50955975  1
  O  O233  1  0.96218417  0.75065805  0.64444624  1
  C  C234  1  0.74539825  0.51876115  0.60999488  1
  C  C235  1  0.91532181  0.83262945  0.50186215  1
  C  C236  1  0.66648902  0.91164393  0.77879307  1
  O  O237  1  0.73255862  0.82326879  0.99063327  1
  N  N238  1  0.56812489  0.88791142  0.79235853  1
  O  O239  1  0.90553070  0.91467823  0.77112294  1
  H  H240  1  0.92185802  0.56555344  0.92201003  1
  C  C241  1  0.52953157  0.93259376  0.83831180  1
  C  C242  1  0.74211204  0.96176150  0.81543691  1
  C  C243  1  0.87696954  0.51228833  0.95040545  1
  C  C244  1  0.85462466  0.98953158  0.79449143  1
  C  C245  1  0.60166548  0.98648195  0.87483675  1
  C  C246  1  0.71238201  0.99882113  0.86619035  1
  H  H247  1  0.72160757  0.53111859  0.91190229  1
