# generated using pymatgen
data_ZnH13C24O5
_symmetry_space_group_name_H-M   'P 1'
_cell_length_a   8.87996737
_cell_length_b   19.39188900
_cell_length_c   25.46124288
_cell_angle_alpha   90.00000000
_cell_angle_beta   90.00000000
_cell_angle_gamma   90.00000000
_symmetry_Int_Tables_number   1
_chemical_formula_structural   ZnH13C24O5
_chemical_formula_sum   'Zn8 H104 C192 O40'
_cell_volume   4384.40925787
_cell_formula_units_Z   8
loop_
 _symmetry_equiv_pos_site_id
 _symmetry_equiv_pos_as_xyz
  1  'x, y, z'
loop_
 _atom_site_type_symbol
 _atom_site_label
 _atom_site_symmetry_multiplicity
 _atom_site_fract_x
 _atom_site_fract_y
 _atom_site_fract_z
 _atom_site_occupancy
  O  O0  1  0.26992399  0.20286642  0.19434365  1
  C  C1  1  0.13323361  0.05094711  0.45277219  1
  C  C2  1  0.29638242  0.08860099  0.22711432  1
  H  H3  1  0.45884859  0.16099417  0.26639083  1
  C  C4  1  0.41523839  0.10639786  0.26333101  1
  C  C5  1  0.18536830  0.11058682  0.42611847  1
  H  H6  1  0.30285769  0.11144352  0.41328984  1
  H  H7  1  0.13038539  0.21573740  0.40534385  1
  C  C8  1  0.08809248  0.16724890  0.42016306  1
  H  H9  1  0.32040971  0.03808543  0.37180991  1
  C  C10  1  0.23091669  0.02227579  0.22456410  1
  C  C11  1  0.22073591  0.14273673  0.19535304  1
  O  O12  1  0.09343235  0.13230919  0.17387657  1
  H  H13  1  0.29278189  0.12116460  0.00579644  1
  C  C14  1  0.41971818  0.02881704  0.02221006  1
  C  C15  1  0.48070516  0.01358933  0.07058238  1
  O  O16  1  0.49623232  0.16756456  0.00468258  1
  H  H17  1  0.13127325  0.01765970  0.19654881  1
  C  C18  1  0.48191832  0.05168605  0.29118425  1
  Zn  Zn19  1  0.01754863  0.24522763  0.16617492  1
  C  C20  1  0.42716020  0.10372886  0.77206621  1
  H  H21  1  0.40857470  0.08708293  0.95113352  1
  C  C22  1  0.12235203  0.14990542  0.94398446  1
  C  C23  1  0.33009889  0.23970728  0.94523769  1
  C  C24  1  0.12221358  0.06450556  0.87016273  1
  H  H25  1  0.30846481  0.02054566  0.67958268  1
  C  C26  1  0.25218723  0.09873305  0.84467950  1
  C  C27  1  0.47989063  0.16798411  0.79127638  1
  C  C28  1  0.07753884  0.08732388  0.91882198  1
  C  C29  1  0.31405050  0.06618137  0.80023333  1
  C  C30  1  0.41653876  0.19660695  0.83660050  1
  H  H31  1  0.22111730  0.12584362  0.71826082  1
  C  C32  1  0.44867360  0.22462903  0.98247332  1
  C  C33  1  0.30395672  0.16507153  0.86729568  1
  C  C34  1  0.24018853  0.18487348  0.91759938  1
  C  C35  1  0.13465909  0.09561545  0.69798673  1
  C  C36  1  0.18942896  0.03540137  0.67608542  1
  H  H37  1  0.44385561  0.24993007  0.84991321  1
  O  O38  1  0.06407509  0.16098695  0.99282774  1
  H  H39  1  0.09276048  0.21321965  0.99619441  1
  H  H40  1  0.06154245  0.03466003  0.76592023  1
  H  H41  1  0.27955054  0.01041065  0.79114947  1
  C  C42  1  0.48796089  0.06481873  0.72473952  1
  H  H43  1  0.47895463  0.15563439  0.67923378  1
  C  C44  1  0.40111952  0.09787921  0.99620880  1
  O  O45  1  0.08594466  0.33339926  0.21158374  1
  C  C46  1  0.00819594  0.48825920  0.12122030  1
  C  C47  1  0.08267593  0.40687804  0.34553409  1
  C  C48  1  0.13878995  0.49933752  0.03449013  1
  O  O49  1  0.07094631  0.29347271  0.01527887  1
  C  C50  1  0.17656964  0.45104419  0.25869355  1
  C  C51  1  0.00916705  0.31871695  0.05400197  1
  C  C52  1  0.05556576  0.33844541  0.25944890  1
  C  C53  1  0.32363787  0.37061679  0.47211415  1
  H  H54  1  0.26608863  0.31734107  0.39423035  1
  C  C55  1  0.12953834  0.46687865  0.36975054  1
  C  C56  1  0.11182923  0.42993403  0.02335088  1
  C  C57  1  0.34458387  0.34921119  0.41752419  1
  H  H58  1  0.19691200  0.44248535  0.21678877  1
  C  C59  1  0.10886443  0.40028337  0.29076961  1
  H  H60  1  0.48158114  0.36492303  0.34726743  1
  H  H61  1  0.39763021  0.45721555  0.02872796  1
  H  H62  1  0.30782140  0.49601848  0.14050197  1
  C  C63  1  0.03454197  0.39399740  0.06321272  1
  C  C64  1  0.46829192  0.37206702  0.39039620  1
  H  H65  1  0.01478514  0.36723386  0.36887928  1
  H  H66  1  0.13385325  0.47659607  0.41209786  1
  H  H67  1  0.24468867  0.43850712  0.77010320  1
  O  O68  1  0.24848415  0.42026829  0.67185221  1
  H  H69  1  0.21647941  0.33703162  0.58900854  1
  C  C70  1  0.24443925  0.43805939  0.86903591  1
  H  H71  1  0.44722795  0.40587753  0.54364212  1
  C  C72  1  0.29100507  0.30266862  0.91771624  1
  C  C73  1  0.14078851  0.34240724  0.55321819  1
  C  C74  1  0.35907375  0.43445657  0.64877053  1
  H  H75  1  0.02010413  0.44790549  0.71560125  1
  C  C76  1  0.18975463  0.35584204  0.50183619  1
  H  H77  1  0.15647946  0.40126624  0.98845011  1
  C  C78  1  0.35422787  0.43077416  0.91029476  1
  C  C79  1  0.14837298  0.37989982  0.85733895  1
  H  H80  1  0.06311727  0.38653948  0.82717669  1
  C  C81  1  0.37449076  0.36401875  0.93337646  1
  H  H82  1  0.43198508  0.47357912  0.92008833  1
  C  C83  1  0.25791906  0.48987595  0.78264402  1
  C  C84  1  0.16988371  0.31435034  0.88047340  1
  C  C85  1  0.49362766  0.35280724  0.97210596  1
  H  H86  1  0.47071407  0.37012389  0.69240543  1
  C  C87  1  0.44921287  0.40179218  0.50109730  1
  O  O88  1  0.46076014  0.35373457  0.79811203  1
  C  C89  1  0.39151126  0.48739214  0.60884326  1
  O  O90  1  0.49638933  0.39496809  0.66068151  1
  H  H91  1  0.09256387  0.27134279  0.87264527  1
  C  C92  1  0.07169508  0.65976843  0.08757129  1
  C  C93  1  0.14513576  0.59827168  0.09811897  1
  C  C94  1  0.19562309  0.52098511  0.34009904  1
  C  C95  1  0.39440480  0.63687058  0.43814880  1
  C  C96  1  0.29570867  0.60355315  0.11922053  1
  H  H97  1  0.16234282  0.65365188  0.30730326  1
  C  C98  1  0.29862305  0.72853342  0.10371482  1
  C  C99  1  0.36549024  0.54213951  0.13623423  1
  C  C100  1  0.08942081  0.52669698  0.08309312  1
  C  C101  1  0.38831103  0.66738230  0.11547898  1
  C  C102  1  0.38497563  0.70396952  0.41145202  1
  C  C103  1  0.26098976  0.58428902  0.36775341  1
  C  C104  1  0.33317654  0.57501216  0.41750107  1
  C  C105  1  0.29710219  0.70889075  0.36427498  1
  C  C106  1  0.23196569  0.64972597  0.34275850  1
  C  C107  1  0.21329237  0.51162635  0.28416150  1
  H  H108  1  0.27069956  0.55343135  0.26341942  1
  C  C109  1  0.14025801  0.72304009  0.09387743  1
  H  H110  1  0.34580880  0.52696456  0.43712345  1
  H  H111  1  0.20656024  0.53317849  0.00968769  1
  C  C112  1  0.44736835  0.63762651  0.49236391  1
  C  C113  1  0.27149775  0.54128898  0.74647727  1
  O  O114  1  0.28662621  0.66308765  0.67383817  1
  O  O115  1  0.13868253  0.74554288  0.93035620  1
  H  H116  1  0.28675305  0.68327665  0.83047690  1
  C  C117  1  0.26972255  0.62847808  0.81467945  1
  C  C118  1  0.26749363  0.61193588  0.76211566  1
  C  C119  1  0.28038356  0.55914184  0.54134143  1
  H  H120  1  0.25660138  0.58846348  0.89288825  1
  C  C121  1  0.26257107  0.66990253  0.72087958  1
  O  O122  1  0.21341289  0.72900650  0.73452292  1
  H  H123  1  0.27439444  0.53265598  0.70261332  1
  C  C124  1  0.25875659  0.57460885  0.85098868  1
  C  C125  1  0.43360214  0.57380377  0.52623748  1
  H  H126  1  0.18393462  0.58629862  0.52649643  1
  H  H127  1  0.14715648  0.70423736  0.90508120  1
  C  C128  1  0.26059616  0.51469164  0.58430012  1
  H  H129  1  0.05209916  0.58836726  0.74221820  1
  C  C130  1  0.24903867  0.50484926  0.83635497  1
  H  H131  1  0.14622149  0.50027289  0.59791537  1
  H  H132  1  0.27928889  0.75753335  0.34294849  1
  O  O133  1  0.08602276  0.86142003  0.34574406  1
  O  O134  1  0.05342160  0.78223821  0.08699423  1
  C  C135  1  0.40822541  0.93534748  0.37880472  1
  C  C136  1  0.41023662  0.98584486  0.29190419  1
  C  C137  1  0.37394491  0.84283318  0.14622483  1
  C  C138  1  0.33603224  0.87728312  0.46815066  1
  H  H139  1  0.34507022  0.83076101  0.49327703  1
  H  H140  1  0.17725176  0.94288819  0.04569895  1
  O  O141  1  0.33714086  0.86533774  0.18594861  1
  H  H142  1  0.24373586  0.91785589  0.25798260  1
  C  C143  1  0.28126307  0.97260358  0.25871083  1
  C  C144  1  0.38253045  0.79326596  0.10431218  1
  C  C145  1  0.40936367  0.87741215  0.41770596  1
  C  C146  1  0.26040020  0.93762046  0.48228468  1
  H  H147  1  0.13292946  0.81838290  0.09197517  1
  C  C148  1  0.49135511  0.80117538  0.05915356  1
  C  C149  1  0.23884315  0.92757055  0.01034929  1
  C  C150  1  0.46628025  0.92538251  0.32713890  1
  C  C151  1  0.32763583  0.99281368  0.39751056  1
  C  C152  1  0.23931051  0.99246200  0.44387830  1
  C  C153  1  0.47613698  0.75754621  0.43270708  1
  C  C154  1  0.48665980  0.81960932  0.39683139  1
  C  C155  1  0.25120265  0.78681001  0.90651163  1
  O  O156  1  0.03055981  0.86789027  0.63160328  1
  H  H157  1  0.04884359  0.94339049  0.92301321  1
  Zn  Zn158  1  0.05558225  0.77781233  0.67915142  1
  C  C159  1  0.06113114  0.99911654  0.84774533  1
  C  C160  1  0.42337515  0.95363035  0.93957373  1
  C  C161  1  0.36160025  0.96710420  0.99009316  1
  C  C162  1  0.13056190  0.91288809  0.64244769  1
  C  C163  1  0.02631012  0.93953510  0.88012679  1
  O  O164  1  0.26090407  0.89971526  0.63799142  1
  H  H165  1  0.44236875  0.88078250  0.87502528  1
  C  C166  1  0.07969461  0.98522945  0.66337266  1
  C  C167  1  0.38242525  0.89441787  0.91169935  1
  C  C168  1  0.27324911  0.85368475  0.93672500  1
  O  O169  1  0.31792260  0.76999426  0.86910379  1
  C  C170  1  0.19306094  0.87057710  0.98219726  1
  C  C171  1  0.04234319  0.99110676  0.79206372  1
  H  H172  1  0.20361549  0.94015105  0.52189168  1
  H  H173  1  0.10291064  0.83727725  0.99511887  1
  H  H174  1  0.73890323  0.04180330  0.02762202  1
  O  O175  1  0.68495142  0.20325868  0.43171779  1
  H  H176  1  0.73732109  0.05225723  0.21797135  1
  O  O177  1  0.77459176  0.22285525  0.17618265  1
  C  C178  1  0.88424457  0.09799731  0.46155551  1
  C  C179  1  0.81606639  0.21231652  0.42164608  1
  C  C180  1  0.93740715  0.15822186  0.43754493  1
  H  H181  1  0.59526481  0.08311993  0.13162971  1
  H  H182  1  0.76335307  0.09724995  0.47355474  1
  H  H183  1  0.58271438  0.05928406  0.31708221  1
  C  C184  1  0.55888045  0.02750220  0.12097721  1
  C  C185  1  0.97644703  0.04111839  0.46806507  1
  O  O186  1  0.68478220  0.24509666  0.25528205  1
  H  H187  1  0.89252802  0.07890367  0.79355929  1
  C  C188  1  0.85009525  0.18692878  0.77025159  1
  H  H189  1  0.74294477  0.14829936  0.96964783  1
  H  H190  1  0.74591985  0.07698693  0.68423108  1
  H  H191  1  0.53298950  0.08618139  0.59206501  1
  C  C192  1  0.73460854  0.20830632  0.87311905  1
  C  C193  1  0.75939695  0.02136110  0.87378200  1
  C  C194  1  0.86791109  0.06403200  0.68222910  1
  C  C195  1  0.77685286  0.13960128  0.85576764  1
  C  C196  1  0.90834528  0.18086683  0.71735317  1
  C  C197  1  0.76915787  0.08674597  0.89924181  1
  H  H198  1  0.68857077  0.21928929  0.91380534  1
  H  H199  1  0.76918289  0.01560339  0.82904070  1
  C  C200  1  0.97932858  0.11381046  0.69785235  1
  C  C201  1  0.84462513  0.12969638  0.80472051  1
  C  C202  1  0.90851550  0.23703127  0.68362399  1
  C  C203  1  0.50338616  0.10128975  0.67573755  1
  C  C204  1  0.75213230  0.09631418  0.95569118  1
  C  C205  1  0.75054730  0.03641076  0.98478957  1
  C  C206  1  0.53894648  0.06349147  0.63045684  1
  H  H207  1  0.58004793  0.19023418  0.77237352  1
  H  H208  1  0.98792897  0.06117366  0.93943343  1
  H  H209  1  0.96213332  0.22836754  0.64601774  1
  C  C210  1  0.67948048  0.35732899  0.13883603  1
  C  C211  1  0.57765048  0.41387262  0.47387863  1
  O  O212  1  0.73264695  0.39771559  0.34337830  1
  H  H213  1  0.69564985  0.32023172  0.10625517  1
  C  C214  1  0.62160174  0.38389391  0.22899085  1
  H  H215  1  0.91841064  0.48288883  0.47709921  1
  C  C216  1  0.58717628  0.47433888  0.16334110  1
  C  C217  1  0.67384360  0.33467193  0.19106775  1
  H  H218  1  0.92607541  0.38809240  0.14211446  1
  Zn  Zn219  1  0.77521287  0.28817900  0.32285305  1
  C  C220  1  0.70841178  0.26211360  0.20729630  1
  C  C221  1  0.63245507  0.42408038  0.12449009  1
  H  H222  1  0.64693584  0.43875102  0.08379848  1
  O  O223  1  0.94163328  0.27862626  0.08662691  1
  C  C224  1  0.58742949  0.40317965  0.41875918  1
  H  H225  1  0.60777071  0.28389308  0.02244097  1
  O  O226  1  0.83280765  0.43994829  0.41688031  1
  C  C227  1  0.72354143  0.42106946  0.39021045  1
  Zn  Zn228  1  0.95541488  0.35153936  0.47850745  1
  C  C229  1  0.58307938  0.45082080  0.21715554  1
  H  H230  1  0.59607421  0.36782570  0.27169209  1
  H  H231  1  0.66827977  0.43596822  0.49795935  1
  H  H232  1  0.56244727  0.48850093  0.24969810  1
  C  C233  1  0.98409316  0.42011562  0.11166164  1
  O  O234  1  0.99397669  0.29141177  0.28516361  1
  O  O235  1  0.86438613  0.26598466  0.39762128  1
  C  C236  1  0.51039631  0.47035340  0.01308909  1
  C  C237  1  0.80276310  0.25769996  0.78502590  1
  C  C238  1  0.85478040  0.32427582  0.59787708  1
  C  C239  1  0.85896976  0.38638167  0.55536745  1
  C  C240  1  0.84616585  0.30378915  0.69264927  1
  H  H241  1  0.79999854  0.27528035  0.58786643  1
  C  C242  1  0.73494252  0.42534199  0.96659385  1
  H  H243  1  0.85917766  0.45897803  0.64465920  1
  H  H244  1  0.72053841  0.31711159  0.85184597  1
  C  C245  1  0.79921863  0.48844192  0.97420459  1
  C  C246  1  0.80661836  0.44419644  0.74961552  1
  O  O247  1  0.83348171  0.34943816  0.65342735  1
  C  C248  1  0.86932585  0.46356403  0.55997432  1
  C  C249  1  0.57088393  0.38140281  0.78353425  1
  H  H250  1  0.63780334  0.46981229  0.60899293  1
  C  C251  1  0.72367364  0.37786043  0.75935589  1
  C  C252  1  0.80557980  0.30868744  0.74607221  1
  C  C253  1  0.74527501  0.26483214  0.83797055  1
  C  C254  1  0.93185608  0.48027199  0.73408206  1
  H  H255  1  0.91810390  0.49591096  0.96469775  1
  H  H256  1  0.79730762  0.38155382  0.94494827  1
  C  C257  1  0.58715747  0.41571090  0.98567511  1
  C  C258  1  0.87387559  0.49445444  0.61178853  1
  C  C259  1  0.97286457  0.33446159  0.55979897  1
  Zn  Zn260  1  0.61618267  0.48967492  0.78083878  1
  C  C261  1  0.52197563  0.28730510  0.99099362  1
  H  H262  1  0.51081786  0.57504168  0.04056602  1
  H  H263  1  0.73009702  0.59439853  0.14304360  1
  C  C264  1  0.57004595  0.53330388  0.01940934  1
  C  C265  1  0.72978706  0.72995385  0.02323241  1
  O  O266  1  0.70115692  0.66304898  0.02864197  1
  H  H267  1  0.61012441  0.71887606  0.12864695  1
  C  C268  1  0.60800988  0.60478674  0.14144077  1
  C  C269  1  0.80134384  0.60727081  0.00081521  1
  H  H270  1  0.60529170  0.71638662  0.36180028  1
  H  H271  1  0.97920272  0.50746730  0.16108610  1
  C  C272  1  0.54501689  0.66793907  0.12730004  1
  H  H273  1  0.96033776  0.65922611  0.07038229  1
  O  O274  1  0.61723220  0.74806752  0.33165694  1
  H  H275  1  0.97531568  0.60668887  0.49112362  1
  H  H276  1  0.85040590  0.74036965  0.01409357  1
  C  C277  1  0.52015402  0.54332049  0.14869322  1
  O  O278  1  0.85195287  0.60378011  0.74521073  1
  C  C279  1  0.95955280  0.68038778  0.58801828  1
  C  C280  1  0.90090753  0.56529920  0.61950797  1
  C  C281  1  0.93841437  0.55757023  0.74325156  1
  C  C282  1  0.90918609  0.50639686  0.51677321  1
  C  C283  1  0.93168677  0.60465330  0.57499570  1
  H  H284  1  0.90495859  0.59058642  0.66020561  1
  C  C285  1  0.56546389  0.54381351  0.54844637  1
  H  H286  1  0.68320716  0.56262833  0.53901224  1
  O  O287  1  0.93831198  0.70108196  0.63520933  1
  C  C288  1  0.52755830  0.69350634  0.51263924  1
  C  C289  1  0.94398872  0.57509164  0.52536355  1
  H  H290  1  0.57945605  0.69230083  0.55138658  1
  O  O291  1  0.91778197  0.61866693  0.98090901  1
  O  O292  1  0.99100651  0.71722136  0.55151051  1
  C  C293  1  0.54308056  0.50157711  0.59194274  1
  C  C294  1  0.71766783  0.54318644  0.99857084  1
  Zn  Zn295  1  0.52135189  0.89266743  0.09586004  1
  C  C296  1  0.65518265  0.79063821  0.04978347  1
  C  C297  1  0.85827789  0.90705319  0.28584407  1
  Zn  Zn298  1  0.94798442  0.98770911  0.33625757  1
  C  C299  1  0.55358602  0.75314607  0.48265919  1
  C  C300  1  0.73181910  0.87183402  0.19981523  1
  H  H301  1  0.83376610  0.79888057  0.25069535  1
  C  C302  1  0.80764772  0.85512450  0.24625528  1
  C  C303  1  0.55089476  0.80967254  0.34748041  1
  C  C304  1  0.52686771  0.86229518  0.30995534  1
  H  H305  1  0.57005170  0.85848037  0.27025899  1
  H  H306  1  0.74043250  0.82569141  0.06736157  1
  H  H307  1  0.69785239  0.82947145  0.17111529  1
  C  C308  1  0.68994978  0.94470919  0.18874726  1
  C  C309  1  0.82193371  0.97752391  0.27029834  1
  O  O310  1  0.79425203  0.91403218  0.04019854  1
  C  C311  1  0.61028404  0.96716002  0.14439421  1
  H  H312  1  0.59489044  0.84422132  0.48369339  1
  H  H313  1  0.93561084  0.99285166  0.48397925  1
  H  H314  1  0.88923379  0.84277282  0.36695321  1
  C  C315  1  0.95525136  0.87800602  0.33989344  1
  C  C316  1  0.74391021  0.99790325  0.22720451  1
  H  H317  1  0.56698610  0.89679631  0.68556261  1
  H  H318  1  0.83946415  0.96121846  0.64883646  1
  C  C319  1  0.76454496  0.97092768  0.95937263  1
  C  C320  1  0.94762795  0.87421846  0.80542789  1
  O  O321  1  0.63147097  0.87760957  0.60384943  1
  H  H322  1  0.73607213  0.91169188  0.88558120  1
  H  H323  1  0.64912534  0.85723663  0.56717967  1
  C  C324  1  0.74746543  0.96292665  0.90445646  1
  O  O325  1  0.77756581  0.85230228  0.96587194  1
  O  O326  1  0.87323621  0.80786510  0.73093445  1
  H  H327  1  0.93500080  0.83084956  0.88388038  1
  C  C328  1  0.87504698  0.81039634  0.78062281  1
  O  O329  1  0.64229678  0.80417401  0.50416409  1
  H  H330  1  0.97824765  0.92650777  0.72989078  1
  C  C331  1  0.60906108  0.94892286  0.59058544  1
  C  C332  1  0.55694325  0.95346363  0.68290809  1
  Zn  Zn333  1  0.53560747  0.77362347  0.98102124  1
  H  H334  1  0.50755942  0.96704768  0.76693991  1
  O  O335  1  0.82738776  0.76606028  0.80962079  1
  C  C336  1  0.78570782  0.90848254  0.99186500  1
  C  C337  1  0.96110777  0.87795801  0.85975008  1
  C  C338  1  0.98881369  0.92998482  0.77217788  1
  H  H339  1  0.50615824  0.98822645  0.91902977  1
  O  O340  1  0.62518279  0.97030092  0.54790632  1
  C  C341  1  0.51976731  0.99227705  0.72733566  1
  C  C342  1  0.57003448  0.99293113  0.63739587  1
  C  C343  1  0.92425371  0.99956156  0.66404089  1
