# generated using pymatgen
data_ZnH17C26O5
_symmetry_space_group_name_H-M   'P 1'
_cell_length_a   13.28982571
_cell_length_b   25.68457855
_cell_length_c   14.83457072
_cell_angle_alpha   90.00000000
_cell_angle_beta   90.00000000
_cell_angle_gamma   90.00000000
_symmetry_Int_Tables_number   1
_chemical_formula_structural   ZnH17C26O5
_chemical_formula_sum   'Zn8 H136 C208 O40'
_cell_volume   5063.68536237
_cell_formula_units_Z   8
loop_
 _symmetry_equiv_pos_site_id
 _symmetry_equiv_pos_as_xyz
  1  'x, y, z'
loop_
 _atom_site_type_symbol
 _atom_site_label
 _atom_site_symmetry_multiplicity
 _atom_site_fract_x
 _atom_site_fract_y
 _atom_site_fract_z
 _atom_site_occupancy
  H  H0  1  0.09765300  0.03118610  0.36126684  1
  H  H1  1  0.26075772  0.12380207  0.47587075  1
  C  C2  1  0.45785416  0.05265773  0.27356577  1
  O  O3  1  0.25305621  0.03438133  0.40375892  1
  H  H4  1  0.11242589  0.04750093  0.21118881  1
  H  H5  1  0.43967327  0.09150828  0.25487783  1
  C  C6  1  0.17888631  0.05823435  0.24913195  1
  H  H7  1  0.16612640  0.10292895  0.26127648  1
  C  C8  1  0.23624876  0.02596251  0.49451614  1
  C  C9  1  0.17738540  0.02501289  0.33687233  1
  H  H10  1  0.24611710  0.05278079  0.20655626  1
  O  O11  1  0.43036212  0.17199892  0.48185547  1
  C  C12  1  0.40929387  0.01107939  0.21714089  1
  O  O13  1  0.28401740  0.11140979  0.06413842  1
  C  C14  1  0.47659012  0.00074813  0.12579056  1
  C  C15  1  0.20297782  0.02057193  0.69449187  1
  C  C16  1  0.22876921  0.14509686  0.53085288  1
  C  C17  1  0.28709816  0.11961955  0.75966177  1
  C  C18  1  0.33505451  0.16325803  0.79883607  1
  C  C19  1  0.45085791  0.09297826  0.70584233  1
  C  C20  1  0.10176034  0.15977114  0.64059525  1
  C  C21  1  0.14595589  0.20799494  0.67007665  1
  H  H22  1  0.20582102  0.11241901  0.76795442  1
  C  C23  1  0.28676075  0.04445537  0.65239281  1
  H  H24  1  0.12041722  0.22697824  0.72783063  1
  H  H25  1  0.27581606  0.19060071  0.82877006  1
  C  C26  1  0.34521175  0.08395528  0.71082220  1
  O  O27  1  0.07991460  0.17941006  0.91169986  1
  H  H28  1  0.23435657  0.03820001  0.83660377  1
  C  C29  1  0.44339716  0.17489612  0.79719940  1
  C  C30  1  0.38829699  0.19785629  0.53508142  1
  H  H31  1  0.03130426  0.06767692  0.71722480  1
  H  H32  1  0.47735660  0.08197783  0.98669756  1
  H  H33  1  0.01275423  0.08197137  0.88691484  1
  H  H34  1  0.36502895  0.06655801  0.53858884  1
  C  C35  1  0.24006149  0.21978781  0.63252158  1
  C  C36  1  0.13975479  0.12882396  0.56694861  1
  C  C37  1  0.17840089  0.02248788  0.78898189  1
  C  C38  1  0.28246458  0.18997955  0.56327123  1
  C  C39  1  0.30159715  0.04516207  0.55933491  1
  H  H40  1  0.25609740  0.13834815  0.94911672  1
  C  C41  1  0.31778014  0.11864377  0.99041993  1
  H  H42  1  0.40525292  0.08993984  0.88311018  1
  O  O43  1  0.45047083  0.23697522  0.58700787  1
  H  H44  1  0.09792125  0.09375372  0.53876292  1
  C  C45  1  0.42220383  0.10919292  0.94803550  1
  C  C46  1  0.00627426  0.18321819  0.86942748  1
  C  C47  1  0.14919633  0.00782889  0.53666487  1
  H  H48  1  0.47247271  0.14410486  0.93111133  1
  H  H49  1  0.49915712  0.06573104  0.66764576  1
  C  C50  1  0.01308062  0.05147945  0.93991917  1
  H  H51  1  0.29583226  0.24800674  0.65899328  1
  C  C52  1  0.05409866  0.00216870  0.91040435  1
  H  H53  1  0.05097361  0.49224567  0.24268970  1
  C  C54  1  0.02238334  0.49610530  0.17261256  1
  C  C55  1  0.19091875  0.40196317  0.68501894  1
  C  C56  1  0.30596202  0.41860696  0.81284138  1
  O  O57  1  0.16869113  0.30257544  0.77353085  1
  H  H58  1  0.13891351  0.37725198  0.64897158  1
  H  H59  1  0.18911550  0.46381694  0.57958106  1
  C  C60  1  0.21618695  0.45175069  0.64775289  1
  C  C61  1  0.32483855  0.46826212  0.77853287  1
  C  C62  1  0.23840403  0.38825208  0.76562525  1
  O  O63  1  0.27376468  0.31938923  0.88102560  1
  C  C64  1  0.27812845  0.48633589  0.69644351  1
  H  H65  1  0.33904276  0.40280411  0.87021209  1
  C  C66  1  0.22170480  0.33357176  0.81139489  1
  C  C67  1  0.01857852  0.49112679  0.57085826  1
  H  H68  1  0.15956019  0.47567936  0.81529175  1
  H  H69  1  0.37524891  0.49137403  0.81881606  1
  H  H70  1  0.49114413  0.48889897  0.70767870  1
  H  H71  1  0.02676950  0.25732504  0.62104994  1
  Zn  Zn72  1  0.37549482  0.25707653  0.87719438  1
  H  H73  1  0.17230188  0.67171040  0.08661921  1
  C  C74  1  0.02361451  0.67739744  0.29378351  1
  H  H75  1  0.37045631  0.62609691  0.42833545  1
  C  C76  1  0.25355464  0.57982698  0.28221091  1
  H  H77  1  0.13584489  0.65648884  0.39361348  1
  O  O78  1  0.33718605  0.71837664  0.36825145  1
  C  C79  1  0.32033960  0.63323380  0.05991012  1
  C  C80  1  0.24931247  0.66711376  0.10860686  1
  C  C81  1  0.42266145  0.62723007  0.09590961  1
  C  C82  1  0.40068724  0.69847319  0.31633694  1
  C  C83  1  0.37407804  0.67849525  0.22472925  1
  C  C84  1  0.27444501  0.68636060  0.19325419  1
  C  C85  1  0.45098686  0.64880270  0.17742006  1
  H  H86  1  0.22175951  0.70957736  0.23270380  1
  C  C87  1  0.09991974  0.68857479  0.35904228  1
  H  H88  1  0.30761391  0.60205020  0.23669794  1
  C  C89  1  0.08937626  0.50708104  0.09947336  1
  H  H90  1  0.47817289  0.60048657  0.06175618  1
  H  H91  1  0.17269722  0.50986316  0.10794957  1
  C  C92  1  0.40926967  0.60696470  0.48340207  1
  H  H93  1  0.17671502  0.59801568  0.29212337  1
  O  O94  1  0.02970914  0.58463950  0.32725382  1
  O  O95  1  0.49105481  0.69214666  0.34380353  1
  O  O96  1  0.27780843  0.53724831  0.30361538  1
  C  C97  1  0.12518272  0.74100507  0.37064823  1
  C  C98  1  0.04743166  0.51149049  0.01077011  1
  H  H99  1  0.42763762  0.73905823  0.07536519  1
  H  H100  1  0.00448118  0.69958366  0.48033224  1
  O  O101  1  0.03249552  0.50719838  0.48940761  1
  C  C102  1  0.23967610  0.57423793  0.62422262  1
  C  C103  1  0.40180003  0.61587991  0.72362630  1
  O  O104  1  0.45044654  0.74991286  0.64744565  1
  C  C105  1  0.04072398  0.69401844  0.89468624  1
  H  H106  1  0.20517014  0.61413509  0.77262079  1
  H  H107  1  0.17948966  0.55477655  0.57825042  1
  C  C108  1  0.48729723  0.53073003  0.72844168  1
  C  C109  1  0.27491513  0.58052133  0.90189789  1
  C  C110  1  0.30810247  0.70095387  0.72986891  1
  H  H111  1  0.03806562  0.61223240  0.61776567  1
  H  H112  1  0.36077628  0.58805559  0.53249502  1
  C  C113  1  0.18582948  0.54717388  0.88878510  1
  C  C114  1  0.08827376  0.74367458  0.88047967  1
  O  O115  1  0.16264084  0.66013182  0.60121471  1
  C  C116  1  0.31882902  0.64747813  0.68938192  1
  C  C117  1  0.07104179  0.63650332  0.56752962  1
  C  C118  1  0.24233191  0.62871675  0.63278249  1
  C  C119  1  0.22560365  0.69712216  0.79790760  1
  C  C120  1  0.47922870  0.63941633  0.77712960  1
  H  H121  1  0.38993974  0.69211705  0.56085043  1
  C  C122  1  0.30822372  0.53940236  0.66389104  1
  C  C123  1  0.39931381  0.55962381  0.70542106  1
  C  C124  1  0.17523219  0.64899373  0.80615269  1
  H  H125  1  0.32377932  0.58934439  0.84448070  1
  C  C126  1  0.44748039  0.72337834  0.57479643  1
  H  H127  1  0.04594804  0.61059055  0.87110616  1
  C  C128  1  0.10671988  0.52434540  0.92974524  1
  C  C129  1  0.08789501  0.64843338  0.86022438  1
  H  H130  1  0.10193348  0.74631872  0.63419944  1
  C  C131  1  0.18801464  0.74403385  0.84761857  1
  C  C132  1  0.36236860  0.74669321  0.71696787  1
  C  C133  1  0.12184660  0.51411577  0.83110219  1
  H  H134  1  0.08688924  0.53158954  0.77151108  1
  C  C135  1  0.29790841  0.60649423  0.97702291  1
  O  O136  1  0.03467785  0.52000476  0.63395143  1
  H  H137  1  0.48335535  0.68085242  0.79430808  1
  H  H138  1  0.10830203  0.60900732  0.51933600  1
  H  H139  1  0.35303754  0.73267592  0.97309480  1
  C  C140  1  0.22438659  0.93110219  0.12586959  1
  C  C141  1  0.15136427  0.90320399  0.44526162  1
  C  C142  1  0.24179332  0.90142973  0.04176134  1
  C  C143  1  0.06257961  0.83405757  0.36155340  1
  O  O144  1  0.18302105  0.92705508  0.19601656  1
  H  H145  1  0.38795454  0.79697919  0.01387325  1
  H  H146  1  0.04600281  0.93590673  0.11639936  1
  C  C147  1  0.15108480  0.85552032  0.40487406  1
  H  H148  1  0.36517598  0.93939876  0.42547108  1
  C  C149  1  0.06157242  0.93379015  0.44551260  1
  H  H150  1  0.15046508  0.84270256  0.11036380  1
  C  C151  1  0.05823973  0.77925819  0.32745479  1
  C  C152  1  0.41130976  0.96061922  0.37604126  1
  O  O153  1  0.43187065  0.83892973  0.33530408  1
  Zn  Zn154  1  0.39807335  0.78262215  0.46876589  1
  C  C155  1  0.19045600  0.85303785  0.05122863  1
  H  H156  1  0.22325446  0.83449154  0.39467559  1
  H  H157  1  0.22400294  0.91513446  0.47184774  1
  H  H158  1  0.30700020  0.94397743  0.25467672  1
  Zn  Zn159  1  0.30870450  0.99897520  0.09101970  1
  H  H160  1  0.18151271  0.75498414  0.41936598  1
  C  C161  1  0.37917607  0.96591120  0.27585624  1
  C  C162  1  0.05991650  0.98486591  0.48548138  1
  C  C163  1  0.03083113  0.96796201  0.06691225  1
  C  C164  1  0.41498365  0.75497319  0.00624316  1
  H  H165  1  0.18407554  0.98391385  0.32401790  1
  C  C166  1  0.48963975  0.99428764  0.41516870  1
  C  C167  1  0.23017978  0.78858568  0.58548735  1
  H  H168  1  0.05174415  0.77984423  0.90252502  1
  C  C169  1  0.08587957  0.99771644  0.81202185  1
  H  H170  1  0.38548276  0.82489762  0.76286471  1
  H  H171  1  0.29318693  0.92015737  0.63640298  1
  H  H172  1  0.32018119  0.95777169  0.95074308  1
  C  C173  1  0.25378631  0.78903340  0.83153637  1
  C  C174  1  0.37277273  0.85331706  0.54196167  1
  H  H175  1  0.13445797  0.90896289  0.72672245  1
  C  C176  1  0.29171272  0.91747765  0.95987367  1
  H  H177  1  0.08220691  0.92175272  0.96082423  1
  H  H178  1  0.06696316  0.88939891  0.83857950  1
  H  H179  1  0.31164400  0.89654626  0.82156397  1
  C  C180  1  0.24151124  0.83231090  0.89631028  1
  C  C181  1  0.16455239  0.87545494  0.69313264  1
  C  C182  1  0.25294253  0.88258504  0.64405829  1
  C  C183  1  0.28417876  0.83848616  0.59164794  1
  C  C184  1  0.11235175  0.82687639  0.69108305  1
  C  C185  1  0.33702913  0.78889036  0.77093671  1
  C  C186  1  0.28529632  0.88372997  0.88925562  1
  C  C187  1  0.03822121  0.97106683  0.65863967  1
  C  C188  1  0.14402782  0.78336033  0.63756574  1
  O  O189  1  0.42908467  0.89049266  0.53241324  1
  C  C190  1  0.01474481  0.97675381  0.75008457  1
  C  C191  1  0.06045526  0.96125958  0.97598184  1
  C  C192  1  0.12630261  0.99963435  0.63169068  1
  O  O193  1  0.47689072  0.89801753  0.79930014  1
  C  C194  1  0.02169263  0.82199080  0.75110238  1
  H  H195  1  0.16229856  0.77966653  0.98996813  1
  C  C196  1  0.19664523  0.81866574  0.97967728  1
  H  H197  1  0.25715034  0.75488272  0.53881404  1
  C  C198  1  0.01279785  0.85877900  0.82559808  1
  H  H199  1  0.49840528  0.75498470  0.87603577  1
  C  C200  1  0.97233632  0.01650513  0.47986415  1
  H  H201  1  0.89940020  0.07705253  0.47225786  1
  O  O202  1  0.91019346  0.04111092  0.25123000  1
  H  H203  1  0.81073724  0.01068010  0.44331894  1
  H  H204  1  0.53622087  0.07492218  0.40672940  1
  C  C205  1  0.98119511  0.01569654  0.09208199  1
  C  C206  1  0.97891401  0.05861388  0.02755719  1
  C  C207  1  0.94162796  0.02499635  0.18266163  1
  H  H208  1  0.93384906  0.09139041  0.04539339  1
  C  C209  1  0.51365211  0.04199942  0.36355303  1
  O  O210  1  0.53134281  0.01811499  0.07244350  1
  O  O211  1  0.73958958  0.12921561  0.49969245  1
  C  C212  1  0.50123688  0.13306386  0.75063203  1
  C  C213  1  0.61050558  0.13152923  0.72365418  1
  C  C214  1  0.62394033  0.13054069  0.62814345  1
  C  C215  1  0.87886772  0.09410107  0.75575975  1
  O  O216  1  0.85614664  0.04323685  0.79579741  1
  C  C217  1  0.80963126  0.13612413  0.75018918  1
  H  H218  1  0.74811461  0.00695811  0.59682397  1
  C  C219  1  0.93531702  0.19578458  0.67503744  1
  C  C220  1  0.71885420  0.12658196  0.58001627  1
  C  C221  1  0.83332683  0.18771797  0.72035195  1
  H  H222  1  0.72588348  0.03481093  0.74739609  1
  C  C223  1  0.70088417  0.12630438  0.78169425  1
  O  O224  1  0.96043947  0.06721828  0.50609649  1
  H  H225  1  0.55244957  0.13513684  0.59311506  1
  H  H226  1  0.96286368  0.22061509  0.86689739  1
  C  C227  1  0.95416115  0.24767490  0.64838580  1
  H  H228  1  0.80029237  0.13412868  0.60609131  1
  H  H229  1  0.85348593  0.04939870  0.62309362  1
  O  O230  1  0.66918540  0.10121449  0.94790595  1
  C  C231  1  0.76086062  0.22889581  0.72931757  1
  H  H232  1  0.68905301  0.21739752  0.76554176  1
  C  C233  1  0.68195029  0.11396957  0.87407602  1
  C  C234  1  0.97540802  0.10148847  0.71834534  1
  C  C235  1  0.99926047  0.15113219  0.67995562  1
  C  C236  1  0.81787013  0.01141858  0.63941691  1
  C  C237  1  0.79423138  0.00994090  0.74337847  1
  C  C238  1  0.50598508  0.21347914  0.84792464  1
  O  O239  1  0.58748163  0.22481071  0.87890359  1
  H  H240  1  0.96493559  0.14970121  0.83670570  1
  H  H241  1  0.51400230  0.23056921  0.55794208  1
  O  O242  1  0.89305373  0.47092748  0.30164786  1
  C  C243  1  0.85440568  0.49104388  0.23289900  1
  H  H244  1  0.97431195  0.41486730  0.45006056  1
  C  C245  1  0.91908146  0.49463594  0.14644645  1
  H  H246  1  0.79075707  0.49458489  0.04755243  1
  H  H247  1  0.89867867  0.32790080  0.48778872  1
  H  H248  1  0.73664805  0.31178837  0.72235962  1
  C  C249  1  0.75285193  0.42411611  0.84133927  1
  C  C250  1  0.88123658  0.28644921  0.66245343  1
  H  H251  1  0.92059913  0.36338761  0.77238528  1
  C  C252  1  0.97883649  0.43832298  0.59263075  1
  C  C253  1  0.78613188  0.27994169  0.70673752  1
  C  C254  1  0.80035712  0.37703485  0.87430774  1
  C  C255  1  0.90768817  0.34278992  0.63340545  1
  C  C256  1  0.67596768  0.48101292  0.73295729  1
  C  C257  1  0.92803173  0.37738692  0.70153582  1
  H  H258  1  0.98709542  0.45706055  0.72931609  1
  H  H259  1  0.76514064  0.41288789  0.69179730  1
  C  C260  1  0.73432414  0.43784206  0.74703382  1
  O  O261  1  0.83930170  0.33905058  0.90231454  1
  C  C262  1  0.96448254  0.42756111  0.68257455  1
  C  C263  1  0.72134077  0.45798289  0.91396429  1
  H  H264  1  0.73830851  0.44755561  0.98461066  1
  C  C265  1  0.96112751  0.40354274  0.51926793  1
  H  H266  1  0.65216512  0.48818527  0.66213610  1
  C  C267  1  0.91834028  0.35574342  0.53794041  1
  O  O268  1  0.91715057  0.61469839  0.23136481  1
  C  C269  1  0.78763586  0.67072092  0.07237217  1
  C  C270  1  0.85239078  0.62844941  0.04711974  1
  O  O271  1  0.74865700  0.61373521  0.42190623  1
  C  C272  1  0.78626712  0.59809454  0.49406105  1
  O  O273  1  0.65029175  0.69959292  0.16071240  1
  C  C274  1  0.87288382  0.50157552  0.06123694  1
  C  C275  1  0.80298142  0.72278001  0.04048856  1
  H  H276  1  0.90682640  0.70108759  0.19361008  1
  Zn  Zn277  1  0.76699826  0.58988411  0.28087441  1
  H  H278  1  0.55690938  0.61325808  0.42449939  1
  C  C279  1  0.51150927  0.60193419  0.48428164  1
  O  O280  1  0.69092335  0.61754559  0.17118746  1
  H  H281  1  0.83757285  0.58966665  0.07563400  1
  C  C282  1  0.70468012  0.66166574  0.13913698  1
  H  H283  1  0.69500176  0.68931765  0.49973416  1
  C  C284  1  0.96688709  0.71397123  0.24267913  1
  Zn  Zn285  1  0.93049109  0.53199943  0.39879085  1
  H  H286  1  0.52428105  0.64103013  0.20650486  1
  Zn  Zn287  1  0.61466363  0.73433594  0.28174771  1
  O  O288  1  0.84862512  0.74721429  0.42243784  1
  O  O289  1  0.76725064  0.50852188  0.23540940  1
  C  C290  1  0.98848368  0.62245170  0.28299470  1
  H  H291  1  0.92394576  0.64217661  0.49607049  1
  O  O292  1  0.83155284  0.55561398  0.49662768  1
  H  H293  1  0.61680154  0.62480629  0.85305726  1
  H  H294  1  0.92997374  0.68872972  0.58781364  1
  H  H295  1  0.63283252  0.72305496  0.83534207  1
  H  H296  1  0.85944485  0.64725504  0.79665467  1
  H  H297  1  0.86154092  0.57876861  0.67013373  1
  C  C298  1  0.82368739  0.65574435  0.72929926  1
  C  C299  1  0.76632329  0.70168851  0.72035692  1
  H  H300  1  0.52963740  0.53669282  0.57974249  1
  C  C301  1  0.77793120  0.63122813  0.57781336  1
  C  C302  1  0.97930596  0.66861636  0.53085235  1
  C  C303  1  0.82033830  0.61659125  0.66096873  1
  C  C304  1  0.56141138  0.55417722  0.78152410  1
  C  C305  1  0.88351452  0.72990603  0.98031462  1
  H  H306  1  0.66962365  0.74973216  0.63090828  1
  C  C307  1  0.64165529  0.51384830  0.80510451  1
  H  H308  1  0.98274481  0.60719649  0.96907903  1
  C  C309  1  0.71285326  0.71355072  0.63830397  1
  H  H310  1  0.78721386  0.55209735  0.83203295  1
  C  C311  1  0.72456311  0.67925718  0.56769554  1
  C  C312  1  0.56067310  0.57678878  0.56933878  1
  C  C313  1  0.55719071  0.60858028  0.80743658  1
  H  H314  1  0.53984282  0.60189870  0.62832111  1
  C  C315  1  0.66746246  0.50220442  0.89761984  1
  O  O316  1  0.85267337  0.54239856  0.80803276  1
  C  C317  1  0.94744251  0.68836918  0.95450947  1
  H  H318  1  0.84543459  0.50418861  0.80578804  1
  H  H319  1  0.64230571  0.52946617  0.95328063  1
  H  H320  1  0.55898633  0.72098937  0.96874634  1
  H  H321  1  0.64387443  0.57265630  0.55709397  1
  C  C322  1  0.77151589  0.74759147  0.78769577  1
  H  H323  1  0.91680642  0.51090335  0.91878068  1
  H  H324  1  0.51267625  0.71783152  0.52867643  1
  C  C325  1  0.93029358  0.63763158  0.98880967  1
  C  C326  1  0.94123085  0.50680328  0.99170495  1
  C  C327  1  0.61050191  0.89044531  0.40790625  1
  Zn  Zn328  1  0.53095569  0.97886568  0.27504908  1
  O  O329  1  0.52701186  0.80128502  0.23546481  1
  C  C330  1  0.88084697  0.94297738  0.40093648  1
  H  H331  1  0.89950685  0.84301274  0.34128794  1
  C  C332  1  0.78038341  0.91994275  0.37018701  1
  O  O333  1  0.88839268  0.85392877  0.09104983  1
  C  C334  1  0.82457825  0.87503982  0.05002334  1
  C  C335  1  0.97192327  0.86391257  0.36086116  1
  C  C336  1  0.69024177  0.86354886  0.26424458  1
  C  C337  1  0.99008976  0.76632230  0.25366888  1
  H  H338  1  0.68664418  0.84208172  0.20012226  1
  H  H339  1  0.54510639  0.88864473  0.45473375  1
  H  H340  1  0.83888092  0.89510038  0.23772711  1
  C  C341  1  0.69625583  0.91923566  0.43100990  1
  C  C342  1  0.97263661  0.91457223  0.39648601  1
  C  C343  1  0.60668175  0.86371655  0.32417737  1
  C  C344  1  0.76898866  0.76860445  0.44066293  1
  Zn  Zn345  1  0.73930418  0.94486528  0.08496900  1
  C  C346  1  0.77559461  0.89199011  0.28500993  1
  H  H347  1  0.95583701  0.79891325  0.21518347  1
  H  H348  1  0.74664219  0.75319332  0.05073210  1
  C  C349  1  0.51231508  0.83183399  0.29814281  1
  O  O350  1  0.68338940  0.75516692  0.40320574  1
  C  C351  1  0.88530448  0.99218420  0.44192771  1
  H  H352  1  0.70174661  0.94242960  0.49280536  1
  H  H353  1  0.60477751  0.80062233  0.49446691  1
  C  C354  1  0.58682723  0.93009998  0.92751071  1
  C  C355  1  0.92396428  0.86210679  0.87628274  1
  C  C356  1  0.69458548  0.93771436  0.67928265  1
  C  C357  1  0.84300855  0.82507271  0.85999072  1
  H  H358  1  0.82658810  0.92731025  0.77388806  1
  H  H359  1  0.91410237  0.89359203  0.92540080  1
  C  C360  1  0.56496424  0.97634062  0.57717085  1
  C  C361  1  0.55055208  0.89888894  0.84541556  1
  C  C362  1  0.75049299  0.82880805  0.90814797  1
  C  C363  1  0.85684812  0.78391237  0.79084383  1
  H  H364  1  0.88509366  0.88955658  0.65541895  1
  H  H365  1  0.60321639  0.86699755  0.82843755  1
  H  H366  1  0.99346241  0.94873734  0.60860236  1
  C  C367  1  0.94274706  0.78603410  0.73364454  1
  C  C368  1  0.82218890  0.87402356  0.61876621  1
  C  C369  1  0.67078982  0.79407062  0.90491336  1
  H  H370  1  0.94080503  0.96261680  0.77179171  1
  C  C371  1  0.75881917  0.95247625  0.76135092  1
  H  H372  1  0.56061907  0.87378816  0.60211891  1
  C  C373  1  0.72120752  0.89009196  0.63241164  1
  C  C374  1  0.60922298  0.96992608  0.66434953  1
  H  H375  1  0.94646804  0.76194560  0.67272296  1
  O  O376  1  0.58716245  0.79917566  0.95760240  1
  C  C377  1  0.63873560  0.86276314  0.59260906  1
  H  H378  1  0.71124045  0.95225843  0.82201330  1
  C  C379  1  0.68733892  0.75358772  0.84218098  1
  C  C380  1  0.66362099  0.82445761  0.53210381  1
  H  H381  1  0.86943666  0.97841911  0.61578123  1
  H  H382  1  0.92487746  0.82626886  0.54818048  1
  C  C383  1  0.66864578  0.91291974  0.97182564  1
  C  C384  1  0.84378322  0.83550276  0.55850506  1
  H  H385  1  0.58784764  0.99447933  0.72245916  1
  H  H386  1  0.89384271  0.77019947  0.95352277  1
  C  C387  1  0.74838294  0.87368433  0.97596516  1
  H  H388  1  0.54412457  0.96363803  0.95146575  1
  C  C389  1  0.51487087  0.75746574  0.94909516  1
  C  C390  1  0.76213477  0.80940021  0.51555416  1
  C  C391  1  0.52736726  0.98280023  0.50274152  1
