# generated using pymatgen
data_Zn2H7C19O8
_symmetry_space_group_name_H-M   'P 1'
_cell_length_a   12.95439985
_cell_length_b   27.03914380
_cell_length_c   24.27891676
_cell_angle_alpha   90.00000000
_cell_angle_beta   90.00000000
_cell_angle_gamma   90.00000000
_symmetry_Int_Tables_number   1
_chemical_formula_structural   Zn2H7C19O8
_chemical_formula_sum   'Zn32 H112 C304 O128'
_cell_volume   8504.31894173
_cell_formula_units_Z   16
loop_
 _symmetry_equiv_pos_site_id
 _symmetry_equiv_pos_as_xyz
  1  'x, y, z'
loop_
 _atom_site_type_symbol
 _atom_site_label
 _atom_site_symmetry_multiplicity
 _atom_site_fract_x
 _atom_site_fract_y
 _atom_site_fract_z
 _atom_site_occupancy
  H  H0  1  0.33360571  0.09071940  0.17918100  1
  C  C1  1  0.37751919  0.12194483  0.19452915  1
  C  C2  1  0.16989318  0.12282096  0.10071411  1
  O  O3  1  0.13809818  0.07952965  0.10185810  1
  O  O4  1  0.15528152  0.14887300  0.14225801  1
  Zn  Zn5  1  0.07214762  0.10023288  0.20171164  1
  C  C6  1  0.22367232  0.14390875  0.04705103  1
  H  H7  1  0.16233653  0.21732207  0.04921844  1
  H  H8  1  0.27670448  0.06873456  0.03511936  1
  Zn  Zn9  1  0.45043954  0.01387408  0.03135279  1
  C  C10  1  0.27775094  0.10730415  0.01972645  1
  C  C11  1  0.20890866  0.19148041  0.02520054  1
  C  C12  1  0.46728253  0.13343394  0.16660687  1
  O  O13  1  0.42526633  0.06529981  0.10029909  1
  O  O14  1  0.02808676  0.02244804  0.19331890  1
  Zn  Zn15  1  0.03893610  0.05897290  0.03543512  1
  C  C16  1  0.48837682  0.09800505  0.11702541  1
  C  C17  1  0.34366113  0.14719716  0.24313867  1
  C  C18  1  0.49677130  0.19402617  0.24074555  1
  O  O19  1  0.28250722  0.46119844  0.15154817  1
  O  O20  1  0.02963737  0.40502406  0.08008954  1
  C  C21  1  0.45194299  0.33220931  0.06109328  1
  H  H22  1  0.10892121  0.36152196  0.01178805  1
  H  H23  1  0.34448136  0.49301966  0.06855856  1
  O  O24  1  0.26650676  0.38523152  0.06154045  1
  Zn  Zn25  1  0.16730338  0.44595081  0.09387416  1
  O  O26  1  0.32157509  0.35940024  0.23882338  1
  C  C27  1  0.31024919  0.38204020  0.01626651  1
  C  C28  1  0.39717845  0.34838785  0.01037113  1
  H  H29  1  0.41398719  0.32865844  0.09893465  1
  O  O30  1  0.17987395  0.30496606  0.24925148  1
  C  C31  1  0.25099043  0.33075659  0.24198489  1
  H  H32  1  0.10310223  0.10435641  0.37266554  1
  C  C33  1  0.10060080  0.09850037  0.41874374  1
  C  C34  1  0.09161955  0.05197508  0.44181614  1
  C  C35  1  0.12462984  0.19203993  0.43593342  1
  H  H36  1  0.37162200  0.19978114  0.30575377  1
  C  C37  1  0.22209982  0.21299572  0.43773031  1
  C  C38  1  0.10447471  0.13963767  0.45593761  1
  O  O39  1  0.20471523  0.15324573  0.30115926  1
  C  C40  1  0.04016398  0.22597005  0.42273582  1
  Zn  Zn41  1  0.25046557  0.01939869  0.30626746  1
  C  C42  1  0.24497181  0.12736930  0.26863697  1
  H  H43  1  0.29149598  0.18847399  0.44345400  1
  C  C44  1  0.40573202  0.18200710  0.26902936  1
  O  O45  1  0.20217052  0.08260053  0.25726308  1
  O  O46  1  0.10366608  0.01605093  0.34875964  1
  O  O47  1  0.33892139  0.01305903  0.37967730  1
  H  H48  1  0.30105336  0.05530284  0.47910881  1
  C  C49  1  0.09514974  0.00953274  0.40157860  1
  C  C50  1  0.07609424  0.04382217  0.49898314  1
  C  C51  1  0.30744356  0.01650881  0.49729853  1
  H  H52  1  0.39496102  0.24687603  0.49934922  1
  C  C53  1  0.14815068  0.29730151  0.43078732  1
  C  C54  1  0.23623723  0.26516316  0.43308882  1
  Zn  Zn55  1  0.48973920  0.29021952  0.38934533  1
  Zn  Zn56  1  0.29557095  0.44238375  0.26772655  1
  C  C57  1  0.05351329  0.27646147  0.41806045  1
  H  H58  1  0.15689798  0.49316926  0.44285655  1
  C  C59  1  0.18310879  0.37469593  0.48901300  1
  C  C60  1  0.18451076  0.42709643  0.48994201  1
  C  C61  1  0.13720521  0.37817733  0.38833552  1
  O  O62  1  0.40756014  0.42550814  0.33109311  1
  O  O63  1  0.14203531  0.44401601  0.29212196  1
  C  C64  1  0.41881736  0.41531165  0.38173018  1
  C  C65  1  0.12121964  0.46046890  0.34009815  1
  C  C66  1  0.41997057  0.27474156  0.46623372  1
  C  C67  1  0.44318639  0.36344601  0.39108310  1
  C  C68  1  0.35313085  0.33027634  0.38277801  1
  H  H69  1  0.28693314  0.34846475  0.36118939  1
  O  O70  1  0.41862363  0.44752844  0.41764943  1
  C  C71  1  0.15812782  0.35364646  0.43857051  1
  C  C72  1  0.13855419  0.42875807  0.39203017  1
  C  C73  1  0.33999404  0.28478769  0.42053251  1
  C  C74  1  0.15872727  0.45289907  0.44244447  1
  H  H75  1  0.11884787  0.35940442  0.34741323  1
  H  H76  1  0.09639002  0.16177983  0.54276788  1
  C  C77  1  0.08854111  0.08391135  0.53394047  1
  O  O78  1  0.32457890  0.11532016  0.70482113  1
  O  O79  1  0.24384585  0.04632466  0.71925028  1
  C  C80  1  0.10119501  0.13036201  0.51318560  1
  C  C81  1  0.08256844  0.07376297  0.59740283  1
  O  O82  1  0.08929403  0.03000977  0.61458317  1
  O  O83  1  0.09331147  0.10812577  0.62867829  1
  C  C84  1  0.26990503  0.09134519  0.73439214  1
  Zn  Zn85  1  0.27431631  0.01822386  0.64071616  1
  C  C86  1  0.29309270  0.00998495  0.55284311  1
  H  H87  1  0.06402266  0.00732796  0.51816999  1
  Zn  Zn88  1  0.36091299  0.47408254  0.63777284  1
  C  C89  1  0.36765696  0.39024831  0.74495626  1
  O  O90  1  0.46084091  0.41733395  0.66032664  1
  O  O91  1  0.25202122  0.44224311  0.57808632  1
  O  O92  1  0.41332013  0.33933591  0.66880665  1
  H  H93  1  0.42399377  0.46628166  0.74744211  1
  O  O94  1  0.06523221  0.33327802  0.73713415  1
  H  H95  1  0.20480808  0.35064524  0.52472742  1
  C  C96  1  0.20715034  0.46033059  0.53758651  1
  C  C97  1  0.02836367  0.36132052  0.70520774  1
  C  C98  1  0.41315141  0.37819411  0.69096365  1
  C  C99  1  0.31757972  0.16554153  0.95086131  1
  C  C100  1  0.25349338  0.20353842  0.97381662  1
  H  H101  1  0.36375916  0.17374028  0.91422228  1
  C  C102  1  0.22154539  0.17874873  0.85432127  1
  C  C103  1  0.16740170  0.14486760  0.88695662  1
  C  C104  1  0.25529479  0.16208921  0.80303742  1
  C  C105  1  0.17268504  0.07872790  0.81649214  1
  C  C106  1  0.33055493  0.11838172  0.97020607  1
  C  C107  1  0.39569797  0.08236694  0.93619033  1
  O  O108  1  0.42185844  0.09524878  0.88813994  1
  C  C109  1  0.14706594  0.09646783  0.86828710  1
  H  H110  1  0.15097453  0.15283368  0.93053030  1
  C  C111  1  0.23488977  0.11301761  0.78877575  1
  C  C112  1  0.10604834  0.06354182  0.91126100  1
  H  H113  1  0.15845656  0.03956355  0.80670061  1
  C  C114  1  0.23318895  0.23009101  0.87591583  1
  O  O115  1  0.41180908  0.03928363  0.95045823  1
  O  O116  1  0.09738292  0.08305610  0.95732368  1
  H  H117  1  0.29803442  0.18374100  0.77365305  1
  O  O118  1  0.06966686  0.01914946  0.90196659  1
  C  C119  1  0.22935344  0.24454539  0.93531347  1
  Zn  Zn120  1  0.49903730  0.04017924  0.84885067  1
  C  C121  1  0.33284600  0.49906349  0.83623557  1
  H  H122  1  0.25573425  0.25960987  0.79413771  1
  Zn  Zn123  1  0.25492520  0.48062323  0.94709311  1
  H  H124  1  0.07556558  0.39624519  0.83727383  1
  C  C125  1  0.44406667  0.33065504  0.95774490  1
  C  C126  1  0.31762660  0.44610838  0.81463602  1
  C  C127  1  0.26351683  0.40945806  0.84241392  1
  C  C128  1  0.31926889  0.35091063  0.77408523  1
  H  H129  1  0.22503192  0.41884715  0.88043998  1
  C  C130  1  0.26748272  0.35926345  0.82431336  1
  C  C131  1  0.17501037  0.32913334  0.90892380  1
  O  O132  1  0.28428021  0.40701665  0.97465240  1
  C  C133  1  0.19951594  0.29163760  0.94935869  1
  C  C134  1  0.10610972  0.37191156  0.92134638  1
  H  H135  1  0.38515387  0.32435942  0.92258223  1
  C  C136  1  0.07112699  0.38177425  0.97579994  1
  C  C137  1  0.05780360  0.40220176  0.88258636  1
  C  C138  1  0.23759930  0.26761826  0.83692385  1
  C  C139  1  0.22604762  0.31842965  0.85605453  1
  C  C140  1  0.37542599  0.43911608  0.76689186  1
  H  H141  1  0.32383969  0.31446901  0.75580328  1
  H  H142  1  0.18615318  0.29674375  0.99375141  1
  C  C143  1  0.29314390  0.59425463  0.15072812  1
  C  C144  1  0.32663183  0.63097050  0.11285874  1
  C  C145  1  0.32801650  0.68431877  0.12703427  1
  H  H146  1  0.26110859  0.60044801  0.19130434  1
  C  C147  1  0.30599152  0.54623410  0.13220145  1
  C  C148  1  0.26609676  0.70574111  0.17135624  1
  C  C149  1  0.11439097  0.62521285  0.06610463  1
  C  C150  1  0.12266105  0.67704394  0.06063834  1
  C  C151  1  0.23794911  0.67560962  0.22286594  1
  C  C152  1  0.11357644  0.53487398  0.02508099  1
  C  C153  1  0.38145463  0.71665688  0.08903544  1
  C  C154  1  0.36496311  0.61708927  0.06052307  1
  C  C155  1  0.37301941  0.56884321  0.04458858  1
  C  C156  1  0.34263176  0.53217722  0.08009587  1
  O  O157  1  0.09098645  0.51522876  0.06850031  1
  C  C158  1  0.06371575  0.71231303  0.09826862  1
  H  H159  1  0.08374331  0.61016579  0.10543978  1
  C  C160  1  0.13529809  0.59122169  0.02498548  1
  H  H161  1  0.07270519  0.69600220  0.22258329  1
  H  H162  1  0.43395840  0.70148345  0.05961773  1
  H  H163  1  0.38736267  0.64618751  0.02997205  1
  H  H164  1  0.39972945  0.66228168  0.24087622  1
  C  C165  1  0.13451623  0.67355649  0.24240354  1
  O  O166  1  0.26414955  0.51103961  0.22342431  1
  C  C167  1  0.27892888  0.50442504  0.17329365  1
  C  C168  1  0.17791014  0.69138422  0.01360201  1
  H  H169  1  0.19556070  0.73099677  0.00833001  1
  O  O170  1  0.28772826  0.99149945  0.03425489  1
  C  C171  1  0.01801914  0.79816478  0.12911090  1
  H  H172  1  0.02012520  0.99541835  0.09318877  1
  H  H173  1  0.30756594  0.98268349  0.13076959  1
  C  C174  1  0.06686809  0.76449108  0.09200480  1
  H  H175  1  0.18961268  0.77437407  0.19873163  1
  C  C176  1  0.29065219  0.91563653  0.17790782  1
  C  C177  1  0.27770094  0.86434102  0.17827879  1
  O  O178  1  0.31087360  0.98556985  0.23589263  1
  C  C179  1  0.43416049  0.80541032  0.05873368  1
  H  H180  1  0.48762832  0.84142796  0.13353339  1
  H  H181  1  0.11944668  0.77959619  0.06055083  1
  C  C182  1  0.48825344  0.84139349  0.09008107  1
  C  C183  1  0.36709711  0.76831392  0.09301764  1
  H  H184  1  0.01751270  0.84322841  0.03532647  1
  C  C185  1  0.29094009  0.94278403  0.12965927  1
  C  C186  1  0.01834173  0.87040098  0.06974339  1
  C  C187  1  0.02691913  0.93760473  0.15796388  1
  H  H188  1  0.29519248  0.84283240  0.21581889  1
  C  C189  1  0.26190447  0.94749603  0.02735480  1
  C  C190  1  0.25009038  0.86851394  0.07717162  1
  H  H191  1  0.03312534  0.87195309  0.21054922  1
  C  C192  1  0.26685355  0.91775265  0.08000253  1
  C  C193  1  0.31800048  0.93884634  0.23317302  1
  C  C194  1  0.03713683  0.97704212  0.20048280  1
  H  H195  1  0.23246278  0.85053503  0.03772110  1
  C  C196  1  0.23753707  0.75540093  0.16757604  1
  O  O197  1  0.04528594  0.96006249  0.24917073  1
  C  C198  1  0.28491276  0.78704499  0.12734203  1
  C  C199  1  0.26847401  0.84228226  0.12718900  1
  C  C200  1  0.02060252  0.85372064  0.12309451  1
  C  C201  1  0.02765466  0.88772284  0.16838078  1
  C  C202  1  0.01227016  0.92255597  0.05922743  1
  C  C203  1  0.02327833  0.95530803  0.10282513  1
  C  C204  1  0.41952983  0.80970967  0.00205395  1
  H  H205  1  0.16729061  0.58115084  0.34172521  1
  C  C206  1  0.37174366  0.59296403  0.32518752  1
  C  C207  1  0.18673947  0.60939417  0.30905835  1
  C  C208  1  0.28712103  0.61891183  0.29323161  1
  O  O209  1  0.35140084  0.55878134  0.35948523  1
  C  C210  1  0.11464331  0.64118865  0.28648891  1
  C  C211  1  0.44078215  0.61953471  0.45967381  1
  O  O212  1  0.41622045  0.57493874  0.46397550  1
  H  H213  1  0.23545916  0.60611335  0.47284072  1
  Zn  Zn214  1  0.46462040  0.52225498  0.40331145  1
  C  C215  1  0.26129404  0.64170474  0.48923965  1
  C  C216  1  0.36547849  0.65754980  0.48312332  1
  O  O217  1  0.46430865  0.60003485  0.31302745  1
  O  O218  1  0.09846170  0.50430373  0.34497157  1
  C  C219  1  0.00230649  0.63753842  0.30682652  1
  C  C220  1  0.38703372  0.70746872  0.49395731  1
  H  H221  1  0.46628797  0.72225075  0.49168806  1
  C  C222  1  0.31854119  0.65183527  0.25214834  1
  C  C223  1  0.34898115  0.92585488  0.49659335  1
  C  C224  1  0.33440821  0.97211918  0.46868174  1
  O  O225  1  0.09144511  0.96724423  0.42228598  1
  C  C226  1  0.35176952  0.97417766  0.40822617  1
  O  O227  1  0.34937615  0.91180978  0.27105420  1
  O  O228  1  0.36249231  0.93280079  0.38499890  1
  C  C229  1  0.19733654  0.78669436  0.37233308  1
  H  H230  1  0.37964708  0.89467209  0.47403580  1
  Zn  Zn231  1  0.48081743  0.91412556  0.32691784  1
  O  O232  1  0.20500824  0.81713041  0.34510175  1
  C  C233  1  0.40714858  0.72136576  0.64802225  1
  C  C234  1  0.40795771  0.63114976  0.70301605  1
  C  C235  1  0.35677004  0.63341021  0.65204578  1
  C  C236  1  0.35747015  0.67928033  0.62624254  1
  H  H237  1  0.31438813  0.67853909  0.58775992  1
  C  C238  1  0.29817436  0.58769136  0.63523844  1
  O  O239  1  0.30960112  0.55019049  0.66282947  1
  O  O240  1  0.24395649  0.59194595  0.59197047  1
  Zn  Zn241  1  0.09250777  0.55886915  0.56910221  1
  C  C242  1  0.32137607  0.73673637  0.52605194  1
  C  C243  1  0.45590543  0.71853674  0.69956877  1
  C  C244  1  0.21508125  0.72362838  0.53094306  1
  C  C245  1  0.45235592  0.67295932  0.72639993  1
  H  H246  1  0.41053646  0.59755131  0.72517836  1
  H  H247  1  0.15931096  0.74299669  0.55883692  1
  O  O248  1  0.19410082  0.50595225  0.53180015  1
  H  H249  1  0.49780056  0.74935014  0.71803374  1
  O  O250  1  0.05572204  0.61444747  0.50759385  1
  O  O251  1  0.01483051  0.68834283  0.53220354  1
  C  C252  1  0.07802364  0.65917309  0.51420019  1
  C  C253  1  0.19243169  0.67561506  0.51182022  1
  C  C254  1  0.35159979  0.77937883  0.56615348  1
  C  C255  1  0.34179406  0.86890403  0.57449250  1
  C  C256  1  0.32720741  0.82488161  0.54329110  1
  C  C257  1  0.45430296  0.96716968  0.72408864  1
  C  C258  1  0.29427645  0.89731383  0.71139506  1
  C  C259  1  0.37675226  0.90249615  0.67525704  1
  C  C260  1  0.37789549  0.86082506  0.63220934  1
  C  C261  1  0.45935486  0.93563237  0.67817273  1
  H  H262  1  0.23434610  0.86835509  0.70472010  1
  C  C263  1  0.32745468  0.92033955  0.55293310  1
  C  C264  1  0.38944657  0.76999110  0.61999200  1
  C  C265  1  0.30175254  0.96645475  0.58070354  1
  C  C266  1  0.39595406  0.81306421  0.65195525  1
  H  H267  1  0.41587448  0.81029606  0.69608034  1
  H  H268  1  0.27753126  0.82172256  0.50605953  1
  C  C269  1  0.26446523  0.67375943  0.92143480  1
  Zn  Zn270  1  0.39336064  0.59558677  0.86610413  1
  O  O271  1  0.27515650  0.64723028  0.88020557  1
  O  O272  1  0.39502519  0.52950518  0.81755708  1
  O  O273  1  0.31551477  0.71406032  0.92159069  1
  H  H274  1  0.21009296  0.58063234  0.94444550  1
  C  C275  1  0.20960702  0.65721484  0.97335558  1
  C  C276  1  0.18430505  0.60760053  0.97673394  1
  C  C277  1  0.41081769  0.55565009  0.98754161  1
  O  O278  1  0.44087290  0.58869001  0.95501312  1
  O  O279  1  0.26735837  0.51716158  0.87142679  1
  O  O280  1  0.39797736  0.51109055  0.97481257  1
  C  C281  1  0.49371674  0.67079561  0.78391334  1
  Zn  Zn282  1  0.43821017  0.73990428  0.87458957  1
  O  O283  1  0.11855690  0.50905726  0.98053925  1
  O  O284  1  0.48243626  0.87566496  0.87971666  1
  O  O285  1  0.38444724  0.81387933  0.88911251  1
  O  O286  1  0.01525536  0.92095978  0.96083964  1
  O  O287  1  0.13814720  0.91143469  0.80137771  1
  H  H288  1  0.36910547  0.78322372  0.98001171  1
  C  C289  1  0.46145614  0.84895066  0.97333646  1
  O  O290  1  0.25478632  0.94980188  0.85076950  1
  O  O291  1  0.23177363  0.92711241  0.98499002  1
  C  C292  1  0.22281699  0.92898929  0.80360934  1
  C  C293  1  0.37286250  0.96733041  0.76130121  1
  H  H294  1  0.36299647  0.99522858  0.79604162  1
  C  C295  1  0.29758826  0.93022274  0.75486581  1
  Zn  Zn296  1  0.15020992  0.94875087  0.91275728  1
  C  C297  1  0.44011355  0.84803843  0.91013121  1
  H  H298  1  0.60090373  0.18119683  0.17228205  1
  C  C299  1  0.86309148  0.13004551  0.04925643  1
  O  O300  1  0.89984100  0.08983241  0.06795334  1
  O  O301  1  0.88944597  0.17122169  0.06084305  1
  O  O302  1  0.56444062  0.10844483  0.09336137  1
  C  C303  1  0.52497868  0.17078026  0.19113720  1
  O  O304  1  0.60663952  0.01483006  0.24907060  1
  H  H305  1  0.79135698  0.04668106  0.01008025  1
  C  C306  1  0.61955669  0.31311616  0.00714118  1
  H  H307  1  0.69328652  0.29233827  0.00827703  1
  C  C308  1  0.58985782  0.48945802  0.11015185  1
  H  H309  1  0.73604393  0.33930620  0.20360045  1
  C  C310  1  0.56624245  0.32944049  0.05896098  1
  O  O311  1  0.90242861  0.47904370  0.18466704  1
  C  C312  1  0.71302393  0.36975769  0.23028412  1
  O  O313  1  0.87465854  0.43467341  0.05593347  1
  Zn  Zn314  1  0.79768542  0.41953089  0.13569427  1
  O  O315  1  0.52182280  0.46392917  0.09523775  1
  O  O316  1  0.71949533  0.35009043  0.10766277  1
  C  C317  1  0.71367355  0.46226019  0.24397524  1
  O  O318  1  0.58559539  0.32346973  0.15321174  1
  H  H319  1  0.54199342  0.30134359  0.22821848  1
  C  C320  1  0.73423503  0.41896969  0.21498587  1
  C  C321  1  0.62830618  0.33375048  0.11011526  1
  C  C322  1  0.96345373  0.42057455  0.04578244  1
  C  C323  1  0.61393740  0.11043701  0.29679930  1
  C  C324  1  0.83159798  0.13014918  0.44804755  1
  H  H325  1  0.79028580  0.06989271  0.38968868  1
  C  C326  1  0.82826050  0.10666948  0.39618983  1
  C  C327  1  0.62138313  0.15381625  0.32820861  1
  C  C328  1  0.63876062  0.20799823  0.31021590  1
  C  C329  1  0.88631266  0.12662634  0.35504520  1
  H  H330  1  0.77684112  0.20725651  0.36738864  1
  C  C331  1  0.89706771  0.17057070  0.45614040  1
  C  C332  1  0.90194534  0.09378084  0.30427375  1
  O  O333  1  0.86385187  0.05153728  0.30355017  1
  C  C334  1  0.57996219  0.06908871  0.32657790  1
  C  C335  1  0.55450436  0.07003134  0.38229278  1
  H  H336  1  0.60627640  0.19140641  0.40715836  1
  C  C337  1  0.59597914  0.15653202  0.38425107  1
  C  C338  1  0.55986682  0.11464677  0.41067094  1
  C  C339  1  0.58142092  0.01959481  0.29647927  1
  C  C340  1  0.94513049  0.16945581  0.35706675  1
  C  C341  1  0.72240428  0.22948372  0.33824846  1
  C  C342  1  0.95001888  0.19115571  0.41095046  1
  C  C343  1  0.57128512  0.23001643  0.27063818  1
  H  H344  1  0.53151869  0.03778167  0.40548760  1
  C  C345  1  0.53020669  0.11918757  0.47083426  1
  O  O346  1  0.53869953  0.16320732  0.48792756  1
  O  O347  1  0.95872498  0.11275034  0.26931167  1
  H  H348  1  0.62498915  0.10900637  0.25143582  1
  O  O349  1  0.73253570  0.07028180  0.49603851  1
  C  C350  1  0.77840095  0.11270616  0.49913906  1
  H  H351  1  0.91014425  0.18629001  0.49851961  1
  H  H352  1  0.99533402  0.17925206  0.32110293  1
  H  H353  1  0.74720948  0.25026411  0.43044828  1
  C  C354  1  0.82432292  0.36092957  0.37162347  1
  C  C355  1  0.65148242  0.40625802  0.31707370  1
  C  C356  1  0.90420689  0.43610003  0.41451176  1
  H  H357  1  0.98932633  0.29868147  0.40444106  1
  C  C358  1  0.85743220  0.38224599  0.41932342  1
  H  H359  1  0.56286034  0.38726811  0.45362523  1
  O  O360  1  0.88463936  0.45819636  0.36948994  1
  O  O361  1  0.94304836  0.45563950  0.45354740  1
  C  C362  1  0.65281228  0.49979613  0.33270793  1
  C  C363  1  0.65988843  0.30706937  0.29347919  1
  C  C364  1  0.77698887  0.31316616  0.37695429  1
  C  C365  1  0.58642550  0.28077113  0.25974867  1
  C  C366  1  0.66474339  0.36291904  0.28318212  1
  H  H367  1  0.60703534  0.39985028  0.35493190  1
  C  C368  1  0.71802161  0.28190690  0.33571912  1
  H  H369  1  0.82674654  0.38072590  0.33079000  1
  C  C370  1  0.85138150  0.35934085  0.46998179  1
  C  C371  1  0.77845236  0.28777909  0.42925742  1
  C  C372  1  0.81064628  0.31194930  0.47558350  1
  O  O373  1  0.61180273  0.49397898  0.37954286  1
  C  C374  1  0.67014422  0.45392294  0.29933660  1
  C  C375  1  0.52113212  0.35315228  0.43694791  1
  C  C376  1  0.50824706  0.30869181  0.47362647  1
  O  O377  1  0.66773877  0.08143835  0.62502481  1
  Zn  Zn378  1  0.61496315  0.04461940  0.54702567  1
  C  C379  1  0.64070701  0.11813434  0.64918960  1
  H  H380  1  0.75048897  0.05484734  0.70158424  1
  C  C381  1  0.67585997  0.12584959  0.70883656  1
  C  C382  1  0.73644726  0.08782438  0.72926441  1
  O  O383  1  0.60183191  0.15609093  0.62653777  1
  Zn  Zn384  1  0.64567535  0.19494934  0.55075620  1
  H  H385  1  0.60245686  0.19695996  0.71963479  1
  O  O386  1  0.78082738  0.13596260  0.54197937  1
  O  O387  1  0.77579156  0.23665123  0.52508099  1
  C  C388  1  0.65333825  0.16824838  0.73815534  1
  C  C389  1  0.53942746  0.00470895  0.73355544  1
  O  O390  1  0.50177875  0.08556377  0.50204339  1
  Zn  Zn391  1  0.57050832  0.38969639  0.60625179  1
  O  O392  1  0.81832121  0.30227022  0.57301825  1
  H  H393  1  0.64173607  0.32459836  0.73660585  1
  O  O394  1  0.55894070  0.26756503  0.55118317  1
  C  C395  1  0.79237460  0.28366792  0.53042669  1
  O  O396  1  0.76304400  0.45317650  0.69459039  1
  O  O397  1  0.59055627  0.45905465  0.56893549  1
  O  O398  1  0.60875820  0.34580964  0.54069921  1
  C  C399  1  0.56438792  0.30578423  0.52472677  1
  C  C400  1  0.71287425  0.41382306  0.70285846  1
  O  O401  1  0.70071946  0.38163886  0.66568118  1
  Zn  Zn402  1  0.91270059  0.46034998  0.72420869  1
  O  O403  1  0.99157785  0.39149369  0.67343317  1
  H  H404  1  0.88310901  0.37734297  0.50691075  1
  H  H405  1  0.79632502  0.13788612  0.85475527  1
  C  C406  1  0.76050544  0.13546262  0.81296538  1
  C  C407  1  0.68970625  0.16996820  0.79340804  1
  C  C408  1  0.64714667  0.19779307  0.89091551  1
  C  C409  1  0.65473078  0.20986561  0.83198727  1
  C  C410  1  0.69163084  0.15395269  0.92032062  1
  C  C411  1  0.70665190  0.06454727  0.93776715  1
  C  C412  1  0.66281268  0.10354624  0.90909037  1
  C  C413  1  0.77527039  0.09320296  0.78219578  1
  C  C414  1  0.83416924  0.05103247  0.81097354  1
  O  O415  1  0.85941808  0.06063136  0.86016934  1
  H  H416  1  0.61737422  0.09987855  0.87009510  1
  C  C417  1  0.75513199  0.16361245  0.96702030  1
  O  O418  1  0.85126553  0.00821905  0.79023782  1
  C  C419  1  0.68895552  0.01052671  0.91871528  1
  C  C420  1  0.76240829  0.07683236  0.98487989  1
  O  O421  1  0.53700735  0.04102955  0.76701700  1
  H  H422  1  0.60857769  0.22331484  0.97038702  1
  C  C423  1  0.61314273  0.23385296  0.92593944  1
  H  H424  1  0.78013241  0.20187299  0.97764150  1
  C  C425  1  0.78941269  0.12508437  0.99930426  1
  Zn  Zn426  1  0.91174239  0.00112815  0.90889368  1
  O  O427  1  0.60786946  0.00015525  0.89471718  1
  C  C428  1  0.98791114  0.43954303  0.89254683  1
  O  O429  1  0.61083405  0.46422063  0.93756835  1
  C  C430  1  0.59464158  0.29306731  0.85116731  1
  C  C431  1  0.95198022  0.47400715  0.84865004  1
  C  C432  1  0.63690564  0.35284034  0.76952753  1
  C  C433  1  0.66615389  0.40089296  0.75716296  1
  O  O434  1  0.97995994  0.46047551  0.80061892  1
  H  H435  1  0.89756671  0.47581568  0.95936924  1
  C  C436  1  0.62876321  0.25657032  0.81279003  1
  H  H437  1  0.57442914  0.37231670  0.90366296  1
  C  C438  1  0.62854026  0.47229672  0.88951839  1
  H  H439  1  0.62523364  0.26599980  0.76907136  1
  C  C440  1  0.55745529  0.31512303  0.95445705  1
  C  C441  1  0.95099060  0.44624157  0.94637272  1
  C  C442  1  0.58224154  0.28218070  0.90960333  1
  C  C443  1  0.60341027  0.34341505  0.82431609  1
  H  H444  1  0.68261106  0.47863319  0.78605560  1
  C  C445  1  0.61905880  0.43097591  0.84666339  1
  C  C446  1  0.65734448  0.44077952  0.79485700  1
  C  C447  1  0.59302641  0.38220848  0.86194189  1
  C  C448  1  0.99677968  0.41644897  0.98504605  1
  Zn  Zn449  1  0.53784463  0.38292042  0.99790808  1
  C  C450  1  0.88922905  0.58952707  0.06153317  1
  C  C451  1  0.92303777  0.63796091  0.07314518  1
  C  C452  1  0.94370390  0.60888202  0.17133046  1
  C  C453  1  0.88976059  0.55301310  0.10188308  1
  C  C454  1  0.90871945  0.56234019  0.15705567  1
  C  C455  1  0.90325382  0.52256576  0.19937524  1
  H  H456  1  0.88684733  0.71648296  0.21072282  1
  C  C457  1  0.95164077  0.64592117  0.12864668  1
  C  C458  1  0.93789843  0.73028518  0.17748616  1
  H  H459  1  0.91818582  0.66906582  0.04142196  1
  H  H460  1  0.86787977  0.51629222  0.08886976  1
  H  H461  1  0.96965802  0.61751880  0.21179536  1
  O  O462  1  0.65579799  0.51492038  0.12419180  1
  C  C463  1  0.98422266  0.69887739  0.13772095  1
  O  O464  1  0.91293087  0.53659202  0.24660805  1
  C  C465  1  0.84401537  0.57714250  0.00326481  1
  H  H466  1  0.73162434  0.50130457  0.23160700  1
  C  C467  1  0.88619310  0.81895180  0.20592062  1
  C  C468  1  0.78006345  0.89296455  0.20462789  1
  C  C469  1  0.94616808  0.78113564  0.17185660  1
  Zn  Zn470  1  0.67548086  0.95028396  0.19740589  1
  O  O471  1  0.57281879  0.96753080  0.05562181  1
  C  C472  1  0.56166448  0.92910995  0.08438407  1
  O  O473  1  0.56603760  0.93129970  0.13663069  1
  H  H474  1  0.78937483  0.84171504  0.13632284  1
  C  C475  1  0.52820496  0.88109508  0.05872031  1
  C  C476  1  0.81430136  0.85031749  0.17845781  1
  C  C477  1  0.52076966  0.88406357  0.00061018  1
  C  C478  1  0.99308318  0.94460233  0.00291084  1
  O  O479  1  0.75172938  0.62196751  0.40078467  1
  C  C480  1  0.77818226  0.59115330  0.43645242  1
  O  O481  1  0.84305593  0.55963373  0.42647683  1
  Zn  Zn482  1  0.59925749  0.60254473  0.36592498  1
  O  O483  1  0.66796462  0.54327818  0.31638639  1
  Zn  Zn484  1  0.92612821  0.53277176  0.34507755  1
  C  C485  1  0.71676216  0.58847375  0.49134691  1
  O  O486  1  0.93559733  0.66678572  0.29379552  1
  O  O487  1  0.51999726  0.63338028  0.43652027  1
  H  H488  1  0.70307895  0.51005118  0.49377499  1
  O  O489  1  0.98170146  0.60368962  0.34160159  1
  H  H490  1  0.71852533  0.66826337  0.49778243  1
  C  C491  1  0.59368809  0.82403164  0.43146153  1
  C  C492  1  0.58401308  0.87271410  0.45104455  1
  C  C493  1  0.58393999  0.81683190  0.36842242  1
  Zn  Zn494  1  0.96874881  0.92046551  0.44481095  1
  O  O495  1  0.97167350  0.86375549  0.37510118  1
  O  O496  1  0.56718728  0.98223488  0.32625983  1
  C  C497  1  0.87607728  0.87107649  0.28861874  1
  C  C498  1  0.91123612  0.88630001  0.34409050  1
  C  C499  1  0.60427467  0.78785601  0.47066590  1
  O  O500  1  0.88265805  0.92867868  0.36408933  1
  H  H501  1  0.77101841  0.93860739  0.28555948  1
  O  O502  1  0.60058104  0.97667831  0.48207057  1
  O  O503  1  0.58359618  0.85303388  0.33368345  1
  H  H504  1  0.62036780  0.75056000  0.45806577  1
  O  O505  1  0.57889339  0.77526447  0.35352582  1
  H  H506  1  0.58085061  0.90335609  0.42109502  1
  Zn  Zn507  1  0.95022772  0.98560077  0.31461729  1
  H  H508  1  0.96680469  0.80297588  0.28330359  1
  C  C509  1  0.90892493  0.82703451  0.26280082  1
  C  C510  1  0.80257035  0.90467489  0.26093114  1
  C  C511  1  0.63242583  0.63267729  0.56548240  1
  C  C512  1  0.67326884  0.69367210  0.64678159  1
  C  C513  1  0.81019655  0.62809021  0.65723447  1
  C  C514  1  0.62963427  0.68188505  0.59401285  1
  C  C515  1  0.86645709  0.59031381  0.69039785  1
  C  C516  1  0.72009914  0.65548415  0.68179117  1
  H  H517  1  0.84061713  0.63548508  0.61283230  1
  C  C518  1  0.62380284  0.54564402  0.56534884  1
  C  C519  1  0.59338419  0.58882591  0.58865192  1
  C  C520  1  0.59853330  0.72055748  0.55862604  1
  C  C521  1  0.93611279  0.55625791  0.66143338  1
  Zn  Zn522  1  0.71113143  0.58149176  0.71179298  1
  H  H523  1  0.54492100  0.58945507  0.62770236  1
  C  C524  1  0.68444494  0.74322021  0.66698415  1
  C  C525  1  0.68988526  0.63353752  0.51494983  1
  O  O526  1  0.95281646  0.56417623  0.61133452  1
  H  H527  1  0.56908952  0.70947158  0.51767051  1
  O  O528  1  0.98269578  0.52174315  0.68623180  1
  C  C529  1  0.71403797  0.65467467  0.74264108  1
  C  C530  1  0.57755799  0.50119603  0.58794889  1
  C  C531  1  0.68357947  0.54399272  0.51705759  1
  C  C532  1  0.86753581  0.59444153  0.74967517  1
  O  O533  1  0.51209713  0.50992000  0.62524829  1
  H  H534  1  0.71683314  0.74992417  0.70895121  1
  O  O535  1  0.61202498  0.99922233  0.70136513  1
  C  C536  1  0.73947170  0.90758420  0.68693841  1
  C  C537  1  0.66578421  0.78173654  0.62707618  1
  O  O538  1  0.94575066  0.95532230  0.54123673  1
  C  C539  1  0.59600204  0.94386539  0.51858832  1
  C  C540  1  0.82681962  0.89496351  0.59757143  1
  C  C541  1  0.70738300  0.83395692  0.63826484  1
  C  C542  1  0.88186854  0.90809689  0.54893686  1
  H  H543  1  0.52447540  0.93333207  0.64816874  1
  C  C544  1  0.78189100  0.84753249  0.59857421  1
  C  C545  1  0.61169051  0.76867872  0.57688885  1
  Zn  Zn546  1  0.76938973  0.97055749  0.73141409  1
  H  H547  1  0.84528788  0.96473957  0.64671639  1
  C  C548  1  0.58773524  0.85087213  0.54625324  1
  C  C549  1  0.58804702  0.88824628  0.50551084  1
  C  C550  1  0.68273354  0.86427129  0.68628900  1
  O  O551  1  0.59425320  0.95829473  0.56777078  1
  H  H552  1  0.58245783  0.86208913  0.59080167  1
  H  H553  1  0.78913973  0.82540370  0.56387968  1
  C  C554  1  0.80799840  0.92641099  0.64475531  1
  C  C555  1  0.59915324  0.80258990  0.52756614  1
  H  H556  1  0.61834702  0.85460078  0.71570686  1
  H  H557  1  0.95616966  0.96231718  0.57982518  1
  O  O558  1  0.88902679  0.88182409  0.50884539  1
  O  O559  1  0.74179247  0.60973946  0.82679368  1
  Zn  Zn560  1  0.77944394  0.56126464  0.89382953  1
  C  C561  1  0.77282422  0.61690833  0.77915846  1
  O  O562  1  0.85821462  0.60803753  0.96629152  1
  O  O563  1  0.65029320  0.51589100  0.87369281  1
  O  O564  1  0.79472401  0.53926404  0.99087509  1
  H  H565  1  0.93564940  0.58168065  0.77450048  1
  H  H566  1  0.67117927  0.68481279  0.76529169  1
  O  O567  1  0.90917339  0.51434477  0.85817931  1
  O  O568  1  0.61028733  0.73968889  0.92666645  1
  O  O569  1  0.50092595  0.62948917  0.80925469  1
  O  O570  1  0.50859802  0.71110425  0.80767660  1
  C  C571  1  0.66705912  0.76528693  0.90236939  1
  O  O572  1  0.72934374  0.78642987  0.87572632  1
  O  O573  1  0.75804495  0.97952896  0.92729359  1
  H  H574  1  0.55057030  0.91450479  0.97656213  1
  O  O575  1  0.96707723  0.99080400  0.99841638  1
