# generated using pymatgen
data_Cu2H24C39(N3O4)2
_symmetry_space_group_name_H-M   'P 1'
_cell_length_a   12.50645609
_cell_length_b   13.98884457
_cell_length_c   40.73791195
_cell_angle_alpha   90.00000000
_cell_angle_beta   90.00000000
_cell_angle_gamma   90.00000000
_symmetry_Int_Tables_number   1
_chemical_formula_structural   Cu2H24C39(N3O4)2
_chemical_formula_sum   'Cu16 H192 C312 N48 O64'
_cell_volume   7127.13315247
_cell_formula_units_Z   8
loop_
 _symmetry_equiv_pos_site_id
 _symmetry_equiv_pos_as_xyz
  1  'x, y, z'
loop_
 _atom_site_type_symbol
 _atom_site_label
 _atom_site_symmetry_multiplicity
 _atom_site_fract_x
 _atom_site_fract_y
 _atom_site_fract_z
 _atom_site_occupancy
  O  O0  1  0.23363427  0.14743909  0.17569186  1
  C  C1  1  0.41473791  0.22370686  0.23433400  1
  H  H2  1  0.29364964  0.10397290  0.06216272  1
  O  O3  1  0.06035839  0.15338679  0.20568614  1
  C  C4  1  0.36205642  0.14304132  0.05239623  1
  C  C5  1  0.28148716  0.32904456  0.16735793  1
  C  C6  1  0.44818644  0.38967224  0.12568017  1
  C  C7  1  0.45991432  0.29100046  0.04247617  1
  C  C8  1  0.29934011  0.15930905  0.15048299  1
  H  H9  1  0.30048192  0.28071240  0.06360215  1
  C  C10  1  0.33688558  0.26489112  0.14820581  1
  O  O11  1  0.16854427  0.47735720  0.20104485  1
  C  C12  1  0.40346810  0.45597282  0.14727108  1
  C  C13  1  0.31240474  0.42568787  0.16433053  1
  H  H14  1  0.21103134  0.30724685  0.18207452  1
  H  H15  1  0.44842557  0.10151831  0.19897930  1
  C  C16  1  0.36686022  0.24101730  0.05369609  1
  C  C17  1  0.41468635  0.29233523  0.12525310  1
  H  H18  1  0.02045391  0.38894282  0.22039115  1
  O  O19  1  0.32950587  0.09661663  0.13357001  1
  Cu  Cu20  1  0.11249362  0.08381684  0.17240624  1
  C  C21  1  0.44892781  0.08749014  0.04140588  1
  C  C22  1  0.43558160  0.12876401  0.22474996  1
  H  H23  1  0.45127751  0.23915785  0.10870298  1
  N  N24  1  0.45770259  0.38636385  0.04400003  1
  H  H25  1  0.41308281  0.28321110  0.21667580  1
  N  N26  1  0.43390755  0.05367389  0.24364359  1
  H  H27  1  0.34734716  0.48097133  0.08145993  1
  C  C28  1  0.26194655  0.49677561  0.18729726  1
  H  H29  1  0.00958461  0.18814728  0.00861578  1
  C  C30  1  0.24133693  0.27002715  0.32345899  1
  C  C31  1  0.28607513  0.44349959  0.32423665  1
  H  H32  1  0.14592470  0.34374688  0.47888762  1
  C  C33  1  0.31599926  0.42793782  0.35639897  1
  C  C34  1  0.14469925  0.49497579  0.46666042  1
  H  H35  1  0.27113286  0.18757915  0.36539895  1
  C  C36  1  0.40581142  0.16447019  0.28965588  1
  C  C37  1  0.23949694  0.36191212  0.30854069  1
  C  C38  1  0.27704047  0.26417066  0.35585498  1
  H  H39  1  0.35107954  0.33163309  0.39854294  1
  H  H40  1  0.00246807  0.00595389  0.39138701  1
  Cu  Cu41  1  0.00584230  0.30696204  0.27347343  1
  C  C42  1  0.42170475  0.07187875  0.27529591  1
  H  H43  1  0.17390888  0.03006161  0.35067583  1
  C  C44  1  0.49546587  0.22991503  0.44228824  1
  C  C45  1  0.41899285  0.18929869  0.46371850  1
  C  C46  1  0.35951691  0.11027438  0.45152326  1
  C  C47  1  0.43892843  0.12618615  0.39876357  1
  O  O48  1  0.31387558  0.42750628  0.47321386  1
  H  H49  1  0.21329635  0.20621409  0.30981125  1
  C  C50  1  0.40285974  0.24300822  0.26875873  1
  C  C51  1  0.19777960  0.37494464  0.27658929  1
  C  C52  1  0.36437496  0.08122587  0.41926841  1
  H  H53  1  0.48684895  0.46066505  0.44506813  1
  C  C54  1  0.31612502  0.33938148  0.37419988  1
  H  H55  1  0.30221008  0.07576728  0.46863322  1
  O  O56  1  0.14729791  0.31016652  0.26245402  1
  C  C57  1  0.09435011  0.40699073  0.47453966  1
  O  O58  1  0.20030983  0.46113368  0.26519030  1
  H  H59  1  0.44800179  0.10315788  0.37313416  1
  H  H60  1  0.39978026  0.17003047  0.31704791  1
  C  C61  1  0.39688071  0.21774267  0.49766557  1
  H  H62  1  0.31350380  0.02498283  0.40915346  1
  H  H63  1  0.38675432  0.31520110  0.27824867  1
  C  C64  1  0.21114689  0.43110523  0.57487930  1
  H  H65  1  0.09151562  0.11457443  0.65660520  1
  O  O66  1  0.34594228  0.26060910  0.63234198  1
  C  C67  1  0.36023052  0.14043390  0.69432061  1
  C  C68  1  0.12795474  0.42215349  0.72760619  1
  C  C69  1  0.00217680  0.05175162  0.52359200  1
  C  C70  1  0.32570353  0.17853643  0.72342244  1
  H  H71  1  0.36873184  0.23592829  0.73662351  1
  C  C72  1  0.10454081  0.41951613  0.58442809  1
  H  H73  1  0.09420585  0.03817629  0.73420938  1
  H  H74  1  0.43213392  0.16784420  0.68132809  1
  C  C75  1  0.19841122  0.02916239  0.69369333  1
  O  O76  1  0.42364822  0.36843137  0.66291723  1
  H  H77  1  0.26937651  0.37552291  0.57897336  1
  O  O78  1  0.08243958  0.34682587  0.73157901  1
  C  C79  1  0.29736722  0.06424109  0.67897577  1
  C  C80  1  0.23777774  0.13261074  0.73944606  1
  Cu  Cu81  1  0.41886545  0.40709816  0.50432704  1
  C  C82  1  0.42676744  0.29601668  0.64135275  1
  C  C83  1  0.16984244  0.06332310  0.72342862  1
  Cu  Cu84  1  0.29933581  0.41483507  0.68178223  1
  O  O85  1  0.46078346  0.28478547  0.51008389  1
  H  H86  1  0.07671903  0.35061189  0.59558400  1
  O  O87  1  0.39940095  0.46240845  0.54438421  1
  C  C88  1  0.11143263  0.01606447  0.61376656  1
  O  O89  1  0.16005536  0.45201196  0.69999167  1
  H  H90  1  0.46328624  0.14029899  0.61240980  1
  N  N91  1  0.33926266  0.03523230  0.65057753  1
  O  O92  1  0.33021310  0.18009419  0.51434282  1
  C  C93  1  0.03567981  0.49530970  0.58171399  1
  C  C94  1  0.05652653  0.05745866  0.63962986  1
  H  H95  1  0.02143981  0.23109305  0.54375032  1
  H  H96  1  0.06492415  0.10556891  0.51940812  1
  H  H97  1  0.19076670  0.04339959  0.60792179  1
  H  H98  1  0.21556138  0.05677231  0.52413195  1
  H  H99  1  0.41144133  0.33659979  0.92748866  1
  O  O100  1  0.44006305  0.49908933  0.97821267  1
  C  C101  1  0.34165202  0.21788412  0.85534907  1
  H  H102  1  0.25819435  0.31638314  0.88525934  1
  C  C103  1  0.27995612  0.04390263  0.94060375  1
  C  C104  1  0.33208340  0.27683022  0.88347699  1
  N  N105  1  0.14812440  0.22954179  0.83586885  1
  H  H106  1  0.19799394  0.02425251  0.93433731  1
  C  C107  1  0.22980319  0.21534286  0.95625957  1
  H  H108  1  0.11800749  0.38799386  0.79463137  1
  C  C109  1  0.23200045  0.30240292  0.97582979  1
  C  C110  1  0.25027671  0.21162905  0.82990250  1
  H  H111  1  0.44821864  0.20910248  0.97217684  1
  C  C112  1  0.41918164  0.14417663  0.96095937  1
  C  C113  1  0.15528039  0.48698888  0.75687906  1
  C  C114  1  0.28522201  0.18033297  0.79861625  1
  C  C115  1  0.07630942  0.20543477  0.81324802  1
  C  C116  1  0.45277448  0.47651989  0.91046711  1
  C  C117  1  0.02418017  0.06732516  0.89425890  1
  H  H118  1  0.40160548  0.48771362  0.85909889  1
  C  C119  1  0.10222674  0.28330741  0.91824047  1
  H  H120  1  0.16612116  0.14429830  0.91149366  1
  C  C121  1  0.09969386  0.16342715  0.78278916  1
  H  H122  1  0.37092638  0.16881385  0.79584802  1
  O  O123  1  0.12376367  0.42551819  0.86008965  1
  N  N124  1  0.42839391  0.16596025  0.84874873  1
  C  C125  1  0.10832970  0.37182955  0.93603141  1
  H  H126  1  0.05341632  0.28252930  0.89583812  1
  H  H127  1  0.03620234  0.13150294  0.76763575  1
  C  C128  1  0.17401944  0.38047710  0.96564615  1
  C  C129  1  0.16232235  0.20658785  0.92811150  1
  C  C130  1  0.30737863  0.13116688  0.95698352  1
  C  C131  1  0.14319644  0.46060499  0.78905167  1
  H  H132  1  0.03236169  0.13764422  0.88225594  1
  C  C133  1  0.21024862  0.15692317  0.77454638  1
  N  N134  1  0.04968252  0.44644920  0.92439253  1
  C  C135  1  0.41469452  0.28401282  0.90700336  1
  H  H136  1  0.17563996  0.45080450  0.97915954  1
  H  H137  1  0.46468758  0.01904833  0.76962943  1
  H  H138  1  0.02071259  0.11554496  0.94647073  1
  H  H139  1  0.28289113  0.30177612  0.99773673  1
  C  C140  1  0.01012720  0.05796726  0.92868634  1
  C  C141  1  0.46754066  0.47811998  0.87570456  1
  H  H142  1  0.37236151  0.49525830  0.92017649  1
  C  C143  1  0.49488684  0.07725323  0.94936161  1
  N  N144  1  0.31411155  0.76116398  0.10328189  1
  C  C145  1  0.41598416  0.81783950  0.05668771  1
  H  H146  1  0.23921744  0.73245925  0.14300864  1
  C  C147  1  0.40418315  0.91811320  0.06160632  1
  C  C148  1  0.45398235  0.98033635  0.03966715  1
  O  O149  1  0.06826758  0.74654094  0.19359369  1
  H  H150  1  0.02990829  0.73617193  0.12428075  1
  C  C151  1  0.27890090  0.59587099  0.11467177  1
  O  O152  1  0.29916992  0.57451895  0.19185593  1
  C  C153  1  0.27344914  0.69462534  0.12157961  1
  H  H154  1  0.43305176  0.61556325  0.04985161  1
  H  H155  1  0.35071855  0.93991880  0.08209086  1
  C  C156  1  0.33391968  0.56122798  0.08681702  1
  O  O157  1  0.01036224  0.61495453  0.21767066  1
  C  C158  1  0.36859491  0.73559802  0.07690081  1
  C  C159  1  0.38315045  0.63659625  0.07050027  1
  H  H160  1  0.23799328  0.54710603  0.13236667  1
  H  H161  1  0.42807093  0.53428598  0.14812217  1
  C  C162  1  0.01834412  0.67401026  0.19314630  1
  Cu  Cu163  1  0.10819478  0.53339555  0.23828367  1
  N  N164  1  0.47453370  0.78313642  0.03251493  1
  H  H165  1  0.06291848  0.66314570  0.00561089  1
  H  H166  1  0.47056925  0.59877745  0.22448179  1
  H  H167  1  0.48809187  0.72280918  0.12650836  1
  C  C168  1  0.49462663  0.61144839  0.24980377  1
  C  C169  1  0.08203965  0.57530735  0.46060860  1
  C  C170  1  0.41411573  0.98460479  0.29850117  1
  C  C171  1  0.46232627  0.89810751  0.28848278  1
  O  O172  1  0.30357645  0.58489569  0.46638188  1
  H  H173  1  0.38382586  0.72358263  0.25442509  1
  C  C174  1  0.16921980  0.97940695  0.37078404  1
  C  C175  1  0.25983426  0.91922167  0.37303785  1
  C  C176  1  0.09786273  0.90701336  0.41868479  1
  O  O177  1  0.36729831  0.58581876  0.35249235  1
  Cu  Cu178  1  0.40760656  0.62213301  0.43417761  1
  H  H179  1  0.23666931  0.83169333  0.44449344  1
  C  C180  1  0.20289912  0.87061071  0.42358380  1
  C  C181  1  0.34268465  0.91845906  0.34529026  1
  H  H182  1  0.37148004  0.75976757  0.35279632  1
  C  C183  1  0.45011237  0.68711790  0.26560274  1
  C  C184  1  0.44734131  0.81584350  0.30816973  1
  H  H185  1  0.27533035  0.51456226  0.31119464  1
  H  H186  1  0.12052923  0.64028267  0.45387592  1
  N  N187  1  0.27916071  0.86825916  0.40076518  1
  C  C188  1  0.38686363  0.82522865  0.33734170  1
  C  C189  1  0.49062944  0.72004279  0.29676212  1
  H  H190  1  0.03117096  0.89122077  0.43588504  1
  C  C191  1  0.26050861  0.50254977  0.46966363  1
  N  N192  1  0.36259476  0.99517593  0.32723499  1
  O  O193  1  0.39436569  0.51846732  0.40158877  1
  C  C194  1  0.35983304  0.51821551  0.37005178  1
  O  O195  1  0.47104766  0.73468234  0.43893454  1
  C  C196  1  0.08010852  0.96709182  0.39162830  1
  H  H197  1  0.40171229  0.80680229  0.49822896  1
  C  C198  1  0.18777231  0.57770688  0.74836710  1
  C  C199  1  0.26000293  0.85193223  0.74176736  1
  C  C200  1  0.10964400  0.82141375  0.66124993  1
  H  H201  1  0.04654353  0.76893817  0.61177868  1
  H  H202  1  0.19474059  0.59496052  0.72221699  1
  C  C203  1  0.10382846  0.76342695  0.63280412  1
  O  O204  1  0.37000302  0.52630539  0.69904631  1
  C  C205  1  0.06138606  0.58271606  0.56605493  1
  N  N206  1  0.26516555  0.74606571  0.68341888  1
  C  C207  1  0.40095210  0.95680898  0.59595062  1
  C  C208  1  0.16651596  0.59730798  0.55614143  1
  C  C209  1  0.18790652  0.80799930  0.68632169  1
  H  H210  1  0.44352535  0.78187411  0.62623174  1
  C  C211  1  0.30299645  0.95266840  0.63849341  1
  N  N212  1  0.07169882  0.86653208  0.73274476  1
  H  H213  1  0.33665105  0.64997868  0.65821132  1
  H  H214  1  0.37861506  0.61405139  0.60919299  1
  H  H215  1  0.19779138  0.66633580  0.54689237  1
  O  O216  1  0.37466320  0.61857120  0.53958614  1
  H  H217  1  0.14755987  0.97639484  0.68244926  1
  N  N218  1  0.46531091  0.97464135  0.57569300  1
  C  C219  1  0.18755581  0.69811636  0.63207903  1
  C  C220  1  0.46150367  0.63736695  0.60709099  1
  C  C221  1  0.16833005  0.84681949  0.72190685  1
  H  H222  1  0.10506357  0.91439012  0.57255672  1
  H  H223  1  0.04900348  0.87775314  0.66604277  1
  C  C224  1  0.27420337  0.69925040  0.65462021  1
  C  C225  1  0.42528400  0.54327830  0.72564299  1
  H  H226  1  0.18088066  0.64100283  0.61255838  1
  C  C227  1  0.23336509  0.51690591  0.55891529  1
  N  N228  1  0.32879950  0.90673983  0.61059731  1
  H  H229  1  0.24404248  0.90818249  0.65024960  1
  H  H230  1  0.33591475  0.81734279  0.73323350  1
  C  C231  1  0.49897231  0.72909069  0.61706371  1
  C  C232  1  0.34403499  0.54137570  0.54724643  1
  C  C233  1  0.06548659  0.94403977  0.59415759  1
  C  C234  1  0.13391114  0.91735158  0.50889499  1
  N  N235  1  0.13387422  0.82096718  0.50379819  1
  H  H236  1  0.49298722  0.68550543  0.52193422  1
  H  H237  1  0.46694553  0.92689971  0.55683780  1
  H  H238  1  0.47928257  0.93415948  0.71473191  1
  C  C239  1  0.23466465  0.78001640  0.50229637  1
  H  H240  1  0.23076190  0.70360068  0.50015899  1
  C  C241  1  0.02384644  0.95661482  0.51422634  1
  O  O242  1  0.00917895  0.74152209  0.54981732  1
  C  C243  1  0.32473071  0.83914639  0.50300498  1
  H  H244  1  0.39068409  0.98414722  0.51394816  1
  C  C245  1  0.22298347  0.98084070  0.51442014  1
  C  C246  1  0.32085696  0.93665629  0.51094929  1
  C  C247  1  0.33927780  0.87235537  0.92336682  1
  N  N248  1  0.00044687  0.69866455  0.99382140  1
  C  C249  1  0.21465459  0.64071696  0.77420302  1
  C  C250  1  0.36282696  0.98006403  0.93127826  1
  N  N251  1  0.24136210  0.83550992  0.92863845  1
  C  C252  1  0.06276080  0.90879850  0.76133898  1
  C  C253  1  0.23035982  0.74446028  0.92343794  1
  C  C254  1  0.34365157  0.89788064  0.79754220  1
  C  C255  1  0.21757224  0.61634249  0.80731294  1
  C  C256  1  0.25084669  0.89140900  0.77399647  1
  H  H257  1  0.14472403  0.72297557  0.92604966  1
  C  C258  1  0.44537727  0.86198436  0.78786586  1
  C  C259  1  0.42773668  0.81252326  0.91535757  1
  H  H260  1  0.24309750  0.66271305  0.82734271  1
  H  H261  1  0.23775031  0.70930670  0.76502505  1
  O  O262  1  0.21905917  0.55678049  0.86728593  1
  C  C263  1  0.41607124  0.71732956  0.90623435  1
  H  H264  1  0.48503610  0.66583765  0.90171810  1
  C  C265  1  0.32245009  0.94969934  0.82696249  1
  H  H266  1  0.28651715  0.61032075  0.90259094  1
  C  C267  1  0.14845911  0.91963852  0.78345716  1
  H  H268  1  0.45886371  0.83169616  0.76243443  1
  C  C269  1  0.00831246  0.89762793  0.88989671  1
  C  C270  1  0.31309189  0.68433087  0.91068968  1
  C  C271  1  0.17698019  0.52533859  0.81311979  1
  C  C272  1  0.03754949  0.52061165  0.94323030  1
  H  H273  1  0.08307850  0.51795738  0.96722765  1
  H  H274  1  0.13651030  0.95496810  0.80725189  1
  H  H275  1  0.24685445  0.97631050  0.83389096  1
  N  N276  1  0.46735619  0.99639552  0.93350588  1
  C  C277  1  0.40893692  0.96101254  0.84599505  1
  C  C278  1  0.01644747  0.98725870  0.87463033  1
  C  C279  1  0.17432354  0.50147992  0.84888949  1
  O  O280  1  0.00530172  0.72452622  0.88091038  1
  O  O281  1  0.00555790  0.82685544  0.84007810  1
  H  H282  1  0.02178322  0.99577008  0.84728631  1
  C  C283  1  0.01130007  0.80916762  0.87038809  1
  H  H284  1  0.39821529  0.99755616  0.86928978  1
  O  O285  1  0.40381319  0.50869124  0.75253367  1
  C  C286  1  0.88127370  0.25280937  0.03878466  1
  C  C287  1  0.73937244  0.43546454  0.08879670  1
  N  N288  1  0.72728388  0.26085205  0.08934633  1
  N  N289  1  0.61534470  0.10550875  0.10835521  1
  C  C290  1  0.80306396  0.26453160  0.21580615  1
  C  C291  1  0.68978478  0.26177304  0.12052188  1
  C  C292  1  0.97766271  0.20969622  0.20016716  1
  H  H293  1  0.75076348  0.15237779  0.17718897  1
  C  C294  1  0.87984244  0.19267970  0.22072234  1
  C  C295  1  0.81473144  0.33237797  0.04256665  1
  C  C296  1  0.54594817  0.43456966  0.03344528  1
  H  H297  1  0.59029340  0.14031735  0.08791083  1
  H  H298  1  0.60772818  0.08856624  0.01640233  1
  H  H299  1  0.82080309  0.31667858  0.19761535  1
  H  H300  1  0.51792536  0.40709813  0.11071770  1
  H  H301  1  0.72799789  0.48057810  0.18180030  1
  H  H302  1  0.89437949  0.20036085  0.05859418  1
  C  C303  1  0.55188804  0.23282943  0.02998008  1
  C  C304  1  0.54189391  0.13461745  0.02773694  1
  C  C305  1  0.89635013  0.44235556  0.23629817  1
  C  C306  1  0.69920258  0.11506453  0.16028615  1
  N  N307  1  0.81343157  0.40883269  0.02316691  1
  H  H308  1  0.62297470  0.27283814  0.01906662  1
  O  O309  1  0.97788829  0.05472414  0.11468487  1
  H  H310  1  0.93678978  0.49920981  0.18570437  1
  H  H311  1  0.65938758  0.33198496  0.23598779  1
  C  C312  1  0.65998419  0.15960808  0.13178359  1
  C  C313  1  0.67441631  0.34764496  0.13663381  1
  C  C314  1  0.69286377  0.43651744  0.12074570  1
  H  H315  1  0.92508331  0.06019670  0.24843016  1
  N  N316  1  0.80260410  0.45021884  0.22532867  1
  C  C317  1  0.74676145  0.34147558  0.07426166  1
  H  H318  1  0.62487539  0.35320645  0.15945918  1
  H  H319  1  0.70092739  0.49668284  0.01876842  1
  C  C320  1  0.66814276  0.01852526  0.16520262  1
  H  H321  1  0.91013848  0.39992769  0.13750668  1
  C  C322  1  0.93996434  0.47274611  0.13441494  1
  H  H323  1  0.62209504  0.39239666  0.03020455  1
  C  C324  1  0.86921526  0.12082625  0.24480418  1
  C  C325  1  0.71072959  0.26636576  0.23631831  1
  O  O326  1  0.97929305  0.26669946  0.17852986  1
  H  H327  1  0.93783951  0.46588554  0.08006758  1
  N  N328  1  0.99593135  0.42296874  0.24206933  1
  C  C329  1  0.95488177  0.00436384  0.13714722  1
  O  O330  1  0.99950494  0.01281180  0.16593671  1
  C  C331  1  0.59258662  0.01481477  0.11083144  1
  C  C332  1  0.73790750  0.49606440  0.24766948  1
  C  C333  1  0.95168341  0.24418536  0.01243980  1
  C  C334  1  0.92053284  0.47739333  0.46627853  1
  C  C335  1  0.85644844  0.40283044  0.34001496  1
  C  C336  1  0.68206587  0.04142578  0.42333673  1
  C  C337  1  0.86715081  0.31494384  0.32208125  1
  C  C338  1  0.83348596  0.40884218  0.37331526  1
  O  O339  1  0.60766368  0.20785175  0.35912676  1
  C  C340  1  0.59855295  0.23719551  0.39045845  1
  H  H341  1  0.70336536  0.11923662  0.42345593  1
  H  H342  1  0.83222318  0.33729030  0.38621532  1
  C  C343  1  0.69408844  0.19533335  0.25875975  1
  O  O344  1  0.87897792  0.32304663  0.29077009  1
  H  H345  1  0.94047290  0.32471508  0.47956832  1
  C  C346  1  0.76045436  0.06092245  0.29151037  1
  O  O347  1  0.86707473  0.23507454  0.33592766  1
  C  C348  1  0.50846524  0.19989329  0.40991416  1
  O  O349  1  0.66199615  0.29207839  0.40142735  1
  C  C350  1  0.77864517  0.12971735  0.26349098  1
  N  N351  1  0.63636447  0.44593799  0.49355700  1
  O  O352  1  0.69563351  0.08479201  0.31317300  1
  H  H353  1  0.62171391  0.18992811  0.27589027  1
  Cu  Cu354  1  0.74662782  0.16474550  0.34592225  1
  C  C355  1  0.98288220  0.39586108  0.47390540  1
  O  O356  1  0.83164915  0.07987308  0.37294357  1
  H  H357  1  0.54935340  0.06534720  0.45624537  1
  H  H358  1  0.54466892  0.28763413  0.45038799  1
  H  H359  1  0.83350528  0.47306980  0.46858554  1
  C  C360  1  0.80882622  0.49142583  0.39096864  1
  C  C361  1  0.59771034  0.01232398  0.44323458  1
  H  H362  1  0.88706295  0.49587279  0.29801437  1
  H  H363  1  0.79558498  0.48813383  0.41671893  1
  C  C364  1  0.85895168  0.49368547  0.32361304  1
  H  H365  1  0.97798121  0.40193809  0.54321375  1
  H  H366  1  0.86500685  0.39064497  0.70611388  1
  C  C367  1  0.58070944  0.04341502  0.69368764  1
  C  C368  1  0.72606690  0.30293387  0.52573324  1
  C  C369  1  0.62179063  0.14013357  0.69557911  1
  H  H370  1  0.81275570  0.15220848  0.60100781  1
  C  C371  1  0.86181922  0.18131127  0.53226327  1
  C  C372  1  0.63441342  0.31094735  0.63699312  1
  C  C373  1  0.88156662  0.46448033  0.71345586  1
  C  C374  1  0.72559689  0.26684427  0.62477141  1
  H  H375  1  0.78015168  0.06165443  0.67268293  1
  H  H376  1  0.73144288  0.01758411  0.53485599  1
  H  H377  1  0.66684656  0.16711763  0.67378107  1
  C  C378  1  0.73559219  0.18070745  0.60863832  1
  H  H379  1  0.63583322  0.26876327  0.72469525  1
  C  C380  1  0.60555723  0.19388357  0.72310492  1
  C  C381  1  0.82892553  0.32791795  0.62657456  1
  C  C382  1  0.94018333  0.25234222  0.53868628  1
  C  C383  1  0.89519687  0.08016617  0.52901659  1
  H  H384  1  0.63466432  0.05484391  0.59871905  1
  H  H385  1  0.63580936  0.38232282  0.64815189  1
  C  C386  1  0.63657589  0.12762294  0.60806281  1
  H  H387  1  0.95785107  0.48343847  0.59150152  1
  N  N388  1  0.77118132  0.47004694  0.53407840  1
  C  C389  1  0.80458595  0.37781158  0.53353003  1
  N  N390  1  0.95952963  0.03091920  0.64809860  1
  C  C391  1  0.68936548  0.49706347  0.51631716  1
  H  H392  1  0.64188244  0.32359547  0.52018065  1
  O  O393  1  0.83048539  0.40788092  0.63936019  1
  O  O394  1  0.90871614  0.29123882  0.61365571  1
  C  C395  1  0.91155977  0.34836226  0.54033837  1
  C  C396  1  0.81620539  0.00704637  0.52854077  1
  C  C397  1  0.53624213  0.26298940  0.63115234  1
  C  C398  1  0.53867339  0.17300624  0.61634882  1
  C  C399  1  0.75111089  0.21004421  0.52524516  1
  C  C400  1  0.50403499  0.05324868  0.74809254  1
  C  C401  1  0.51322236  0.00503976  0.71890218  1
  H  H402  1  0.69360140  0.15664675  0.51905671  1
  C  C403  1  0.89943662  0.48396161  0.74711477  1
  C  C404  1  0.54354402  0.14949991  0.74932458  1
  H  H405  1  0.58580806  0.45391799  0.83739321  1
  C  C406  1  0.64093314  0.41356158  0.77736173  1
  H  H407  1  0.57760081  0.12950485  0.86019910  1
  H  H408  1  0.90483370  0.20037387  0.77035616  1
  C  C409  1  0.61027925  0.10863207  0.94618366  1
  H  H410  1  0.90238688  0.42644156  0.76627837  1
  C  C411  1  0.55845683  0.28549694  0.78076536  1
  O  O412  1  0.57761825  0.41191216  0.98837590  1
  C  C413  1  0.75725468  0.02513746  0.78638163  1
  C  C414  1  0.53614457  0.44940673  0.93109472  1
  C  C415  1  0.81620744  0.24345163  0.85928576  1
  C  C416  1  0.77445666  0.09923462  0.91706720  1
  H  H417  1  0.83525039  0.07214583  0.89860149  1
  O  O418  1  0.78470821  0.46690494  0.84713505  1
  C  C419  1  0.76749941  0.44818010  0.87760314  1
  H  H420  1  0.81390164  0.26164489  0.88488436  1
  H  H421  1  0.58099112  0.23018322  0.91256804  1
  N  N422  1  0.61896432  0.33899601  0.76061931  1
  H  H423  1  0.65321019  0.26253857  0.83962014  1
  C  C424  1  0.77335783  0.22560956  0.80229738  1
  C  C425  1  0.80524560  0.17580446  0.93709860  1
  C  C426  1  0.67229095  0.06244608  0.92114563  1
  C  C427  1  0.73730861  0.24474953  0.83461848  1
  H  H428  1  0.88353560  0.21252979  0.93750171  1
  H  H429  1  0.75373142  0.28203649  0.97553085  1
  C  C430  1  0.57197856  0.46089525  0.86367731  1
  H  H431  1  0.70319323  0.40423814  0.93781648  1
  O  O432  1  0.84501237  0.44018134  0.89711981  1
  N  N433  1  0.63366790  0.18831739  0.96230932  1
  Cu  Cu434  1  0.98486325  0.43529884  0.87754580  1
  C  C435  1  0.50583338  0.23404206  0.89661311  1
  C  C436  1  0.50989699  0.17772197  0.86810141  1
  N  N437  1  0.92079386  0.22797184  0.85085042  1
  H  H438  1  0.71838165  0.21808755  0.78126499  1
  C  C439  1  0.87959042  0.21498688  0.79542459  1
  C  C440  1  0.63723991  0.42685294  0.92041305  1
  C  C441  1  0.73311214  0.22034490  0.95922428  1
  C  C442  1  0.94541633  0.32202849  0.99116258  1
  N  N443  1  0.52366201  0.20215504  0.77639845  1
  C  C444  1  0.65472639  0.44316456  0.88653789  1
  C  C445  1  0.95562253  0.22263992  0.82053480  1
  H  H446  1  0.86481488  0.46528548  0.98142500  1
  H  H447  1  0.53315919  0.31843054  0.80589689  1
  H  H448  1  0.68299443  0.05881920  0.79298014  1
  H  H449  1  0.83983585  0.04737778  0.83244302  1
  N  N450  1  0.67437217  0.48928807  0.78868303  1
  C  C451  1  0.84325972  0.01686373  0.80846463  1
  C  C452  1  0.51038597  0.44801760  0.96802279  1
  O  O453  1  0.96815067  0.02166848  0.99590131  1
  H  H454  1  0.99253525  0.32266422  0.96936826  1
  C  C455  1  0.87564083  0.40053416  0.99666855  1
  C  C456  1  0.65039882  0.52876590  0.13572735  1
  C  C457  1  0.99498387  0.66473418  0.12956159  1
  C  C458  1  0.52412902  0.84393641  0.01238606  1
  H  H459  1  0.68280896  0.63907293  0.21104585  1
  O  O460  1  0.77502305  0.83542408  0.03893730  1
  C  C461  1  0.75910229  0.75868074  0.12084669  1
  C  C462  1  0.51628045  0.94463928  0.01269766  1
  N  N463  1  0.58312424  0.77441957  0.18464948  1
  C  C464  1  0.88029044  0.92101605  0.13109792  1
  C  C465  1  0.98399080  0.62567260  0.16169246  1
  H  H466  1  0.86931423  0.95028435  0.07881466  1
  Cu  Cu467  1  0.85393712  0.65753842  0.01349724  1
  H  H468  1  0.72177171  0.68782578  0.11488753  1
  C  C469  1  0.85183149  0.90245249  0.09932286  1
  H  H470  1  0.87268636  0.89105490  0.18356676  1
  H  H471  1  0.58288608  0.89341724  0.14427625  1
  C  C472  1  0.69340626  0.84075225  0.24859314  1
  C  C473  1  0.65973067  0.55334929  0.03301746  1
  O  O474  1  0.67891367  0.72197234  0.06197670  1
  C  C475  1  0.74489022  0.79074377  0.06283191  1
  C  C476  1  0.61799186  0.81650710  0.20693878  1
  C  C477  1  0.78988630  0.82110010  0.09576112  1
  N  N478  1  0.56284706  0.52786923  0.04196643  1
  C  C479  1  0.61165635  0.96730993  0.14108672  1
  O  O480  1  0.93392909  0.60249744  0.04552791  1
  C  C481  1  0.78854769  0.78382830  0.15326317  1
  N  N482  1  0.72360516  0.62540507  0.03829129  1
  H  H483  1  0.55629974  0.98551043  0.08755606  1
  C  C484  1  0.65815681  0.62035231  0.18559328  1
  C  C485  1  0.58744262  0.68892299  0.17012759  1
  H  H486  1  0.77182612  0.73755634  0.17483492  1
  C  C487  1  0.68558402  0.53843641  0.16882919  1
  C  C488  1  0.58209862  0.59672380  0.11860829  1
  N  N489  1  0.64129218  0.88499254  0.22627782  1
  C  C490  1  0.54261951  0.67053159  0.13722246  1
  C  C491  1  0.84515960  0.86790719  0.15928957  1
  C  C492  1  0.96806583  0.65288533  0.06902836  1
  C  C493  1  0.97390185  0.60672478  0.10153356  1
  N  N494  1  0.63650756  0.50252941  0.24407683  1
  H  H495  1  0.55783278  0.58413691  0.09392017  1
  H  H496  1  0.75592252  0.50731392  0.07741758  1
  C  C497  1  0.95099983  0.52928634  0.16214487  1
  Cu  Cu498  1  0.95128581  0.80802652  0.02624654  1
  O  O499  1  0.98963527  0.73859237  0.06210177  1
  C  C500  1  0.95045723  0.50883827  0.10283178  1
  H  H501  1  0.68115971  0.98998450  0.19131861  1
  H  H502  1  0.50397447  0.88652087  0.46264602  1
  C  C503  1  0.58134276  0.56146778  0.26605530  1
  C  C504  1  0.56743696  0.66513545  0.31399511  1
  O  O505  1  0.61133486  0.69333127  0.40816404  1
  O  O506  1  0.78969094  0.74588228  0.33562675  1
  C  C507  1  0.80689184  0.57907447  0.37425894  1
  C  C508  1  0.83042592  0.57362287  0.34135836  1
  H  H509  1  0.78655166  0.64565127  0.38772361  1
  C  C510  1  0.83509402  0.67205459  0.32402751  1
  C  C511  1  0.72904831  0.97074888  0.40263624  1
  C  C512  1  0.69160945  0.87827719  0.40275459  1
  C  C513  1  0.61992878  0.58898281  0.29723025  1
  N  N514  1  0.74286351  0.81790143  0.27182974  1
  H  H515  1  0.58980907  0.69100359  0.33838914  1
  H  H516  1  0.60536630  0.68300172  0.47085591  1
  H  H517  1  0.77122854  0.79556071  0.46855848  1
  Cu  Cu518  1  0.79723635  0.87333392  0.31577916  1
  H  H519  1  0.68720966  0.55647315  0.30924140  1
  O  O520  1  0.88764598  0.67015847  0.29978117  1
  C  C521  1  0.61135392  0.85128034  0.42507683  1
  C  C522  1  0.62722394  0.73235499  0.49075356  1
  C  C523  1  0.90252962  0.65403551  0.45784178  1
  O  O524  1  0.81127422  0.63953478  0.45285963  1
  N  N525  1  0.50253942  0.52342428  0.45951579  1
  H  H526  1  0.73172017  0.82456183  0.38680385  1
  C  C527  1  0.56409303  0.75212613  0.42356054  1
  O  O528  1  0.83504160  0.92423430  0.35883112  1
  H  H529  1  0.74219636  0.74301100  0.27395562  1
  O  O530  1  0.94586119  0.73702423  0.46341186  1
  H  H531  1  0.51461920  0.89251563  0.26682600  1
  C  C532  1  0.72067904  0.78874713  0.48953529  1
  C  C533  1  0.80539661  0.99371128  0.37647319  1
  C  C534  1  0.56341809  0.91740454  0.44524603  1
  H  H535  1  0.78120126  0.52639271  0.26904719  1
  C  C536  1  0.97107859  0.56339316  0.46094101  1
  C  C537  1  0.56982871  0.50267557  0.47862985  1
  O  O538  1  0.81671319  0.98809958  0.29270150  1
  N  N539  1  0.94301702  0.89280558  0.51045391  1
  H  H540  1  0.51300608  0.50147454  0.58914882  1
  C  C541  1  0.95818705  0.92593525  0.60084612  1
  C  C542  1  0.91456093  0.96654135  0.63026931  1
  H  H543  1  0.90800527  0.89233984  0.58231720  1
  C  C544  1  0.68418939  0.74990403  0.72329291  1
  O  O545  1  0.87014430  0.68835447  0.64630940  1
  C  C546  1  0.80244318  0.93930262  0.64081496  1
  N  N547  1  0.68324248  0.85391131  0.54424553  1
  C  C548  1  0.56356781  0.73747529  0.51891416  1
  C  C549  1  0.90701811  0.62923192  0.69943736  1
  N  N550  1  0.68257149  0.68129089  0.60678681  1
  H  H551  1  0.94294227  0.73197272  0.73925853  1
  C  C552  1  0.59331035  0.90187355  0.64984739  1
  H  H553  1  0.88049387  0.93048869  0.72132534  1
  O  O554  1  0.89743400  0.65053054  0.57768506  1
  C  C555  1  0.56216651  0.64157053  0.69345679  1
  H  H556  1  0.67793886  0.72906449  0.67064490  1
  C  C557  1  0.64147676  0.71329742  0.69421640  1
  N  N558  1  0.76239227  0.85945503  0.62733188  1
  C  C559  1  0.93007535  0.65737025  0.73077114  1
  H  H560  1  0.71191019  0.54425727  0.59338186  1
  C  C561  1  0.65757696  0.84300138  0.62998983  1
  C  C562  1  0.53845085  0.57226718  0.59652132  1
  C  C563  1  0.98759284  0.66268241  0.56435911  1
  H  H564  1  0.74668588  0.80391860  0.72468412  1
  C  C565  1  0.74095711  0.99926691  0.66109382  1
  C  C566  1  0.88884793  0.53497163  0.69015397  1
  C  C567  1  0.61168132  0.75057530  0.61680390  1
  C  C568  1  0.84254638  0.91447279  0.51999207  1
  H  H569  1  0.66012396  0.57794789  0.51923234  1
  C  C570  1  0.59502559  0.80092316  0.54440873  1
  C  C571  1  0.89957959  0.71386729  0.67558858  1
  C  C572  1  0.64827012  0.59535590  0.59932977  1
  Cu  Cu573  1  0.83725037  0.74573668  0.60370613  1
  O  O574  1  0.89028960  0.79318385  0.68525400  1
  C  C575  1  0.74522222  0.84504443  0.51774579  1
  Cu  Cu576  1  0.98497710  0.74967945  0.50554239  1
  H  H577  1  0.56829313  0.80476628  0.56933700  1
  C  C578  1  0.86781539  0.95578585  0.74628706  1
  H  H579  1  0.69862052  0.99464787  0.73734512  1
  H  H580  1  0.88582807  0.51788516  0.66232222  1
  C  C581  1  0.63059739  0.98311255  0.66719900  1
  H  H582  1  0.54807350  0.60722362  0.66980431  1
  C  C583  1  0.51421154  0.61228294  0.72336092  1
  H  H584  1  0.50455022  0.88816330  0.65333792  1
  N  N585  1  0.98481173  0.60428873  0.93931711  1
  H  H586  1  0.62545997  0.78480176  0.84491860  1
  H  H587  1  0.61041274  0.85367259  0.79892708  1
  N  N588  1  0.81667021  0.65606269  0.85992453  1
  Cu  Cu589  1  0.97322432  0.60912676  0.85445982  1
  C  C590  1  0.65539564  0.84591292  0.86055101  1
  Cu  Cu591  1  0.88751608  0.80734994  0.81265476  1
  H  H592  1  0.75695724  0.68363860  0.91813046  1
  Cu  Cu593  1  0.73051009  0.57382175  0.82740175  1
  C  C594  1  0.61955992  0.65843453  0.95244465  1
  C  C595  1  0.59211327  0.79797307  0.98531651  1
  C  C596  1  0.91982332  0.57983086  0.75400051  1
  C  C597  1  0.70214668  0.71463611  0.93768833  1
  H  H598  1  0.81424968  0.61516102  0.88115230  1
  C  C599  1  0.69915773  0.72301031  0.78303223  1
  C  C600  1  0.71685458  0.81292707  0.94512386  1
  N  N601  1  0.74885196  0.82539074  0.87762280  1
  C  C602  1  0.64386389  0.70645172  0.75179731  1
  C  C603  1  0.94802862  0.94423731  0.77051480  1
  O  O604  1  0.67170546  0.67714090  0.80819544  1
  C  C605  1  0.77712836  0.74037079  0.86788599  1
  O  O606  1  0.93183880  0.56607536  0.81257689  1
  H  H607  1  0.64464155  0.99620520  0.90833276  1
  N  N608  1  0.59621059  0.92291817  0.86102135  1
  O  O609  1  0.77237700  0.78590169  0.78446912  1
  H  H610  1  0.50339844  0.66512199  0.99236363  1
  N  N611  1  0.66325614  0.85212820  0.97011701  1
  H  H612  1  0.77574910  0.85771969  0.93244661  1
  C  C613  1  0.99270383  0.88622177  0.92376173  1
  C  C614  1  0.98884051  0.96654186  0.94337607  1
  C  C615  1  0.93931477  0.61828558  0.78754114  1
  C  C616  1  0.56341854  0.70154320  0.97766864  1
  H  H617  1  0.59738550  0.58901342  0.94314585  1
  H  H618  1  0.50783613  0.84504524  0.91558030  1
  O  O619  1  0.95715956  0.70552868  0.79130713  1
  H  H620  1  0.52489001  0.61002978  0.77532421  1
  H  H621  1  0.71023102  0.52333702  0.76777043  1
  H  H622  1  0.97501533  0.81172919  0.93162193  1
  N  N623  1  0.93615930  0.97787981  0.80030748  1
  O  O624  1  0.92710930  0.86953876  0.98675254  1
  C  C625  1  0.99253881  0.65128197  0.96592849  1
  C  C626  1  0.53540516  0.87827052  0.80676191  1
  C  C627  1  0.51301516  0.92006363  0.83882073  1
  C  C628  1  0.95995668  0.95475549  0.97827421  1
  C  C629  1  0.55934283  0.63673286  0.75277595  1
  H  H630  1  0.56076830  0.98784007  0.99557484  1
  C  C631  1  0.76678562  0.99268041  0.75397495  1
