# generated using pymatgen
data_CuH8C15(NO)4
_symmetry_space_group_name_H-M   'P 1'
_cell_length_a   14.30042185
_cell_length_b   11.58283234
_cell_length_c   38.04187524
_cell_angle_alpha   90.00000000
_cell_angle_beta   90.00000000
_cell_angle_gamma   90.00000000
_symmetry_Int_Tables_number   1
_chemical_formula_structural   CuH8C15(NO)4
_chemical_formula_sum   'Cu16 H128 C240 N64 O64'
_cell_volume   6301.23295926
_cell_formula_units_Z   16
loop_
 _symmetry_equiv_pos_site_id
 _symmetry_equiv_pos_as_xyz
  1  'x, y, z'
loop_
 _atom_site_type_symbol
 _atom_site_label
 _atom_site_symmetry_multiplicity
 _atom_site_fract_x
 _atom_site_fract_y
 _atom_site_fract_z
 _atom_site_occupancy
  N  N0  1  0.25019538  0.18534272  0.09772538  1
  H  H1  1  0.34321723  0.02696525  0.02086387  1
  C  C2  1  0.28082108  0.14463300  0.12851626  1
  C  C3  1  0.27054005  0.38618426  0.12401689  1
  N  N4  1  0.00563828  0.07917728  0.01958353  1
  Cu  Cu5  1  0.20440783  0.12664548  0.04198370  1
  O  O6  1  0.13276556  0.14698393  0.22965283  1
  N  N7  1  0.09272595  0.03675004  0.04810464  1
  C  C8  1  0.24499415  0.30034550  0.09874577  1
  H  H9  1  0.14808190  0.30035719  0.02148948  1
  H  H10  1  0.12703251  0.39873961  0.07611959  1
  H  H11  1  0.28743645  0.21004873  0.14781448  1
  C  C12  1  0.42993547  0.23751250  0.02441389  1
  H  H13  1  0.23467496  0.32527619  0.07193580  1
  N  N14  1  0.16421803  0.23492234  0.00565842  1
  H  H15  1  0.30660534  0.11002036  0.19015269  1
  N  N16  1  0.27570229  0.03154679  0.01094817  1
  H  H17  1  0.48910516  0.48611024  0.24336540  1
  N  N18  1  0.31092721  0.37777447  0.15683361  1
  C  C19  1  0.42475585  0.37632194  0.02903497  1
  C  C20  1  0.31395675  0.02234228  0.13079039  1
  C  C21  1  0.33178596  0.02327875  0.19192957  1
  C  C22  1  0.03901907  0.48221080  0.01262974  1
  O  O23  1  0.01851056  0.38178498  0.02057801  1
  O  O24  1  0.25234094  0.26264771  0.23105529  1
  O  O25  1  0.46595164  0.19685758  0.24084953  1
  C  C26  1  0.21297508  0.18092790  0.24206568  1
  C  C27  1  0.46510066  0.43797897  0.05780157  1
  O  O28  1  0.45455585  0.17519095  0.04768496  1
  C  C29  1  0.38451574  0.44569744  0.00525192  1
  Cu  Cu30  1  0.01857430  0.20618448  0.24560172  1
  C  C31  1  0.15304659  0.48276514  0.06709074  1
  N  N32  1  0.32151988  0.48443308  0.17103271  1
  O  O33  1  0.00075158  0.31687696  0.20685370  1
  H  H34  1  0.49714844  0.39862165  0.08145304  1
  H  H35  1  0.49889387  0.08973670  0.18984854  1
  C  C36  1  0.31837056  0.16389920  0.29518500  1
  O  O37  1  0.14089313  0.26148469  0.32022329  1
  H  H38  1  0.11690085  0.16936470  0.38448477  1
  C  C39  1  0.40579777  0.15401736  0.35116936  1
  C  C40  1  0.46537770  0.04874779  0.47778347  1
  O  O41  1  0.46461562  0.22104685  0.33688172  1
  O  O42  1  0.45671473  0.23022767  0.44757382  1
  C  C43  1  0.33515656  0.10648083  0.32675152  1
  O  O44  1  0.40545215  0.13075536  0.38340652  1
  C  C45  1  0.24501335  0.12054023  0.27498043  1
  Cu  Cu46  1  0.39632639  0.27096069  0.40688674  1
  C  C47  1  0.30473294  0.47941326  0.41118537  1
  O  O48  1  0.37243269  0.42041427  0.42599479  1
  H  H49  1  0.35841459  0.23756775  0.28771456  1
  O  O50  1  0.00669900  0.28560796  0.29113341  1
  O  O51  1  0.28257761  0.46959373  0.38141410  1
  C  C52  1  0.05702963  0.25847179  0.31959778  1
  O  O53  1  0.10015966  0.09378498  0.44964142  1
  C  C54  1  0.42689381  0.16987518  0.47438174  1
  C  C55  1  0.19742610  0.02038346  0.28310418  1
  C  C56  1  0.00344666  0.25136432  0.35428069  1
  O  O57  1  0.38044033  0.20561661  0.49776422  1
  C  C58  1  0.04517278  0.19831552  0.38322996  1
  C  C59  1  0.01849782  0.11296682  0.44260687  1
  C  C60  1  0.29155725  0.00503899  0.33682369  1
  N  N61  1  0.48035881  0.39258494  0.54202424  1
  H  H62  1  0.35939759  0.29734519  0.55670712  1
  C  C63  1  0.27564332  0.16579284  0.68563434  1
  O  O64  1  0.26113878  0.10005669  0.70933372  1
  O  O65  1  0.23649679  0.26278094  0.68394042  1
  C  C66  1  0.13712805  0.38725403  0.73869521  1
  H  H67  1  0.35791042  0.30655030  0.62780026  1
  C  C68  1  0.35905814  0.14468236  0.65977995  1
  C  C69  1  0.03239031  0.20415503  0.58994958  1
  C  C70  1  0.38857905  0.22062355  0.63310721  1
  C  C71  1  0.46025447  0.18293015  0.61175793  1
  O  O72  1  0.07634947  0.22770178  0.61740476  1
  C  C73  1  0.43454244  0.31548171  0.56076800  1
  H  H74  1  0.17063453  0.32525932  0.71863292  1
  N  N75  1  0.49107216  0.26749908  0.58571447  1
  C  C76  1  0.06418856  0.46357212  0.73136915  1
  C  C77  1  0.40193182  0.04022864  0.66515276  1
  O  O78  1  0.05225436  0.23300634  0.56096991  1
  H  H79  1  0.03721130  0.46713995  0.70539505  1
  C  C80  1  0.47353515  0.00552593  0.64254888  1
  H  H81  1  0.39719047  0.01675972  0.53010819  1
  O  O82  1  0.46482546  0.14211426  0.74397429  1
  C  C83  1  0.21976666  0.03433863  0.90907482  1
  H  H84  1  0.22113236  0.32244050  0.78292645  1
  Cu  Cu85  1  0.17231175  0.35701106  0.96951066  1
  N  N86  1  0.28323734  0.30102291  0.94309594  1
  Cu  Cu87  1  0.27051959  0.16170137  0.97597855  1
  C  C88  1  0.04018746  0.25756238  0.91367091  1
  H  H89  1  0.43975876  0.43399286  0.88232740  1
  O  O90  1  0.21753023  0.13405224  0.89748509  1
  Cu  Cu91  1  0.28373040  0.42303729  0.90968833  1
  H  H92  1  0.26110785  0.23935837  0.92560041  1
  H  H93  1  0.46139021  0.40747282  0.80299278  1
  N  N94  1  0.07193496  0.27435041  0.94146201  1
  C  C95  1  0.16465346  0.37933549  0.77396492  1
  H  H96  1  0.06707971  0.30476106  0.89107932  1
  H  H97  1  0.15644846  0.04106753  0.84497428  1
  O  O98  1  0.42260532  0.20265369  0.99391893  1
  Cu  Cu99  1  0.41293740  0.31588394  0.94233913  1
  N  N100  1  0.20203582  0.42932592  0.86087191  1
  O  O101  1  0.25853217  0.00689219  0.93694964  1
  Cu  Cu102  1  0.04807272  0.19476132  0.98790478  1
  N  N103  1  0.41490128  0.43371653  0.90799236  1
  C  C104  1  0.12100912  0.45532827  0.79940352  1
  C  C105  1  0.15888519  0.47143928  0.83551670  1
  O  O106  1  0.49808255  0.16984090  0.90132881  1
  H  H107  1  0.08786059  0.91561033  0.08617109  1
  C  C108  1  0.11949889  0.54276636  0.03873919  1
  H  H109  1  0.35786168  0.84119606  0.05465663  1
  C  C110  1  0.36060294  0.97020481  0.22391416  1
  C  C111  1  0.13833369  0.65580186  0.03074682  1
  H  H112  1  0.10972274  0.69363139  0.00644226  1
  C  C113  1  0.30945510  0.88422202  0.07394496  1
  C  C114  1  0.40845298  0.62622306  0.02630497  1
  O  O115  1  0.22877334  0.83174253  0.04392992  1
  H  H116  1  0.35853849  0.86224181  0.15984948  1
  C  C117  1  0.33700762  0.95696091  0.16055563  1
  C  C118  1  0.46437533  0.55902917  0.05390330  1
  H  H119  1  0.28626070  0.71187964  0.09593131  1
  H  H120  1  0.35845521  0.68266823  0.03892614  1
  H  H121  1  0.29382472  0.65746314  0.15419577  1
  C  C122  1  0.20166142  0.72499169  0.05081571  1
  C  C123  1  0.23573729  0.66641938  0.08057103  1
  C  C124  1  0.05590351  0.96214535  0.06519894  1
  C  C125  1  0.28942895  0.56279666  0.14940156  1
  C  C126  1  0.31655204  0.94723386  0.10003385  1
  C  C127  1  0.21538060  0.55248647  0.08832680  1
  N  N128  1  0.49991984  0.78214124  0.19828307  1
  C  C129  1  0.47604873  0.71231696  0.00626726  1
  H  H130  1  0.25551322  0.94677452  0.01109974  1
  H  H131  1  0.49504326  0.52226510  0.12762654  1
  N  N132  1  0.25797936  0.50690589  0.11989170  1
  H  H133  1  0.13450581  0.58943941  0.39534504  1
  N  N134  1  0.16871958  0.66388612  0.33867592  1
  C  C135  1  0.24683296  0.89502301  0.43858311  1
  C  C136  1  0.13718511  0.67024537  0.48378189  1
  H  H137  1  0.31010230  0.66371053  0.31421423  1
  C  C138  1  0.16988841  0.76717356  0.29010858  1
  C  C139  1  0.32494109  0.82916515  0.44680853  1
  C  C140  1  0.27794330  0.55870015  0.46962317  1
  H  H141  1  0.46093393  0.87602616  0.30979725  1
  C  C142  1  0.15842688  0.59578663  0.42361680  1
  H  H143  1  0.30361502  0.96337401  0.36249943  1
  N  N144  1  0.14716847  0.66566147  0.30319808  1
  H  H145  1  0.16136934  0.79416562  0.26233097  1
  C  C146  1  0.10193253  0.65631000  0.44885749  1
  C  C147  1  0.21305858  0.87170340  0.40465239  1
  N  N148  1  0.34077337  0.74885499  0.38818425  1
  C  C149  1  0.22923186  0.95549297  0.31293151  1
  N  N150  1  0.20252074  0.83659019  0.31657839  1
  C  C151  1  0.37545249  0.77181616  0.41951868  1
  C  C152  1  0.38008856  0.62219518  0.31004511  1
  H  H153  1  0.35996977  0.83026254  0.47382739  1
  C  C154  1  0.20774321  0.76283289  0.34618393  1
  C  C155  1  0.24297108  0.55326553  0.43505097  1
  H  H156  1  0.13924462  0.90521382  0.39636059  1
  H  H157  1  0.20332203  0.94703679  0.45509363  1
  H  H158  1  0.44824576  0.73128322  0.42280765  1
  C  C159  1  0.25948507  0.79988865  0.38073490  1
  H  H160  1  0.46174806  0.67662863  0.35887997  1
  H  H161  1  0.35175098  0.95076479  0.27837313  1
  N  N162  1  0.01766028  0.71139076  0.44058983  1
  C  C163  1  0.45820688  0.63960074  0.33280062  1
  C  C164  1  0.47451779  0.85387711  0.25928380  1
  H  H165  1  0.03745190  0.71291783  0.37957874  1
  H  H166  1  0.32095438  0.55958483  0.26156823  1
  C  C167  1  0.38506688  0.56921050  0.27679996  1
  C  C168  1  0.38832497  0.92089273  0.25435652  1
  H  H169  1  0.34823362  0.52433280  0.47781003  1
  C  C170  1  0.47631206  0.52812685  0.26813822  1
  H  H171  1  0.14262194  0.98499597  0.26641780  1
  C  C172  1  0.21878626  0.61434013  0.49344966  1
  H  H173  1  0.00717121  0.53680887  0.56932456  1
  H  H174  1  0.08621346  0.72860903  0.71058743  1
  O  O175  1  0.39313835  0.84039999  0.55997736  1
  C  C176  1  0.14853246  0.69193152  0.69644815  1
  H  H177  1  0.19714174  0.52743891  0.62290639  1
  C  C178  1  0.21154134  0.57823709  0.64646075  1
  C  C179  1  0.24534483  0.61477269  0.53272876  1
  O  O180  1  0.19795108  0.67787935  0.55023692  1
  C  C181  1  0.24550050  0.70647231  0.70632699  1
  C  C182  1  0.32206014  0.65440612  0.68981592  1
  C  C183  1  0.09104142  0.89260780  0.64459648  1
  H  H184  1  0.09593872  0.71408759  0.50358936  1
  C  C185  1  0.30204712  0.58984364  0.65951623  1
  C  C186  1  0.13963033  0.62766605  0.66685333  1
  H  H187  1  0.39538805  0.66859632  0.69722142  1
  Cu  Cu188  1  0.41632537  0.58624281  0.57182103  1
  C  C189  1  0.43537244  0.79773129  0.53675328  1
  H  H190  1  0.37831398  0.98184384  0.68622582  1
  H  H191  1  0.22257013  0.91508671  0.67572421  1
  C  C192  1  0.14646026  0.91694024  0.67450713  1
  C  C193  1  0.10023486  0.94113337  0.70580050  1
  H  H194  1  0.11664399  0.87827085  0.61777204  1
  C  C195  1  0.38701820  0.54605831  0.64161003  1
  O  O196  1  0.45084498  0.68669012  0.53402932  1
  N  N197  1  0.00850388  0.93899030  0.71207622  1
  C  C198  1  0.03431701  0.59792538  0.65568536  1
  N  N199  1  0.25785480  0.76040731  0.73694847  1
  N  N200  1  0.42946573  0.83086304  0.74100460  1
  O  O201  1  0.30800413  0.54422714  0.54388318  1
  O  O202  1  0.01339622  0.54286148  0.62874688  1
  O  O203  1  0.46195761  0.54479227  0.65587598  1
  C  C204  1  0.34174109  0.79675652  0.74172577  1
  C  C205  1  0.46982306  0.87115014  0.50561544  1
  C  C206  1  0.44027000  0.98504918  0.50741562  1
  H  H207  1  0.12556497  0.96240098  0.73251382  1
  O  O208  1  0.37607225  0.50462075  0.60959052  1
  C  C209  1  0.18626996  0.54156143  0.86620501  1
  C  C210  1  0.46737541  0.82919556  0.87921536  1
  C  C211  1  0.42345614  0.81514596  0.81074627  1
  O  O212  1  0.03492042  0.80217260  0.78113247  1
  C  C213  1  0.40002897  0.81935112  0.77350173  1
  O  O214  1  0.33452484  0.70693229  0.95773915  1
  C  C215  1  0.16850407  0.73153462  0.87628948  1
  C  C216  1  0.15406234  0.95419473  0.85365163  1
  H  H217  1  0.09467469  0.68367176  0.82681699  1
  C  C218  1  0.19666582  0.82153489  0.89946753  1
  N  N219  1  0.36067435  0.77160603  0.83335428  1
  N  N220  1  0.19483452  0.62606720  0.88702469  1
  C  C221  1  0.18812680  0.93186960  0.88683120  1
  C  C222  1  0.30853902  0.60334649  0.96782082  1
  O  O223  1  0.23878534  0.55928999  0.95716009  1
  C  C224  1  0.11491756  0.86444894  0.83288556  1
  C  C225  1  0.11573923  0.75503776  0.84486133  1
  C  C226  1  0.38564099  0.77387090  0.86629778  1
  O  O227  1  0.05489885  0.98768236  0.78860577  1
  C  C228  1  0.42335574  0.76931596  0.97448461  1
  H  H229  1  0.32259167  0.73863768  0.88007354  1
  H  H230  1  0.21904765  0.79776031  0.92594370  1
  C  C231  1  0.06372099  0.87819184  0.79864501  1
  C  C232  1  0.47495281  0.84814877  0.96430425  1
  C  C233  1  0.36206910  0.54049452  0.99697070  1
  N  N234  1  0.06693271  0.53902341  0.78949338  1
  C  C235  1  0.02739916  0.53745747  0.75831134  1
  H  H236  1  0.48650329  0.82499521  0.90642828  1
  O  O237  1  0.00893149  0.53255827  0.98711341  1
  H  H238  1  0.48126111  0.63652993  0.80937280  1
  H  H239  1  0.43713123  0.51429292  0.91610073  1
  C  C240  1  0.57366115  0.08097372  0.19519304  1
  H  H241  1  0.58436861  0.41215976  0.20847321  1
  C  C242  1  0.84029195  0.32950042  0.18769950  1
  H  H243  1  0.86274491  0.32491256  0.05656125  1
  C  C244  1  0.61428638  0.13292727  0.22350537  1
  H  H245  1  0.78189180  0.28285907  0.13604383  1
  N  N246  1  0.68069898  0.15105637  0.08241692  1
  C  C247  1  0.54748347  0.19463025  0.24869157  1
  C  C248  1  0.73001266  0.24025395  0.06980793  1
  C  C249  1  0.73038261  0.07682990  0.10207911  1
  C  C250  1  0.93222613  0.01681702  0.02486567  1
  C  C251  1  0.59205656  0.34530116  0.14522852  1
  O  O252  1  0.95695378  0.27223702  0.15225273  1
  C  C253  1  0.73445018  0.02083799  0.17995868  1
  C  C254  1  0.82963982  0.25629688  0.07022489  1
  C  C255  1  0.94255749  0.30298565  0.18170227  1
  C  C256  1  0.63589272  0.02452676  0.17099284  1
  C  C257  1  0.88286964  0.17915278  0.09047107  1
  C  C258  1  0.86730563  0.08575216  0.21685007  1
  H  H259  1  0.88185053  0.38669835  0.23843850  1
  C  C260  1  0.77081378  0.32193771  0.16154016  1
  C  C261  1  0.68237519  0.35210636  0.17088526  1
  O  O262  1  0.61053252  0.37070943  0.11540368  1
  C  C263  1  0.70839668  0.15039634  0.23095726  1
  C  C264  1  0.72684610  0.40473155  0.22921734  1
  C  C265  1  0.76306133  0.08728866  0.20784600  1
  C  C266  1  0.82059323  0.37347963  0.22009489  1
  C  C267  1  0.65554079  0.39277661  0.20315037  1
  H  H268  1  0.67679631  0.29384718  0.05689471  1
  C  C269  1  0.83702223  0.01974472  0.01227813  1
  H  H270  1  0.95968970  0.18444630  0.09087324  1
  O  O271  1  0.51114512  0.34335132  0.15693228  1
  C  C272  1  0.82886244  0.08735539  0.10442911  1
  O  O273  1  0.89858092  0.13525558  0.24503471  1
  O  O274  1  0.91457169  0.02727172  0.19735626  1
  H  H275  1  0.86293419  0.01848909  0.12272523  1
  C  C276  1  0.74623486  0.02385483  0.32286636  1
  Cu  Cu277  1  0.58467077  0.16956871  0.32085294  1
  C  C278  1  0.69443986  0.28520942  0.41519627  1
  N  N279  1  0.72072298  0.45193719  0.26299164  1
  H  H280  1  0.88388787  0.33547696  0.33152523  1
  H  H281  1  0.51914288  0.05938035  0.42391043  1
  H  H282  1  0.59925598  0.41568657  0.49118474  1
  C  C283  1  0.64444544  0.49722401  0.28171918  1
  N  N284  1  0.75698067  0.29605074  0.38679975  1
  C  C285  1  0.89046392  0.19791800  0.41188420  1
  O  O286  1  0.69332644  0.10242438  0.30909947  1
  O  O287  1  0.95051782  0.09095623  0.46572808  1
  C  C288  1  0.71824523  0.27728938  0.45330801  1
  N  N289  1  0.65375470  0.23373014  0.47468048  1
  C  C290  1  0.80386542  0.32682369  0.46637476  1
  C  C291  1  0.98674563  0.17407085  0.41116292  1
  C  C292  1  0.91049291  0.28739861  0.35485173  1
  O  O293  1  0.57957308  0.23864241  0.27737555  1
  H  H294  1  0.73464276  0.19630514  0.25526834  1
  N  N295  1  0.60617470  0.31602522  0.40357846  1
  H  H296  1  0.84992669  0.16573905  0.43339167  1
  H  H297  1  0.59296345  0.19921209  0.46527054  1
  C  C298  1  0.70105472  0.33839117  0.35943051  1
  C  C299  1  0.85396422  0.27207753  0.38521978  1
  H  H300  1  0.72561626  0.35131330  0.33261604  1
  N  N301  1  0.61566826  0.35129708  0.36922871  1
  H  H302  1  0.85141997  0.37195637  0.44788166  1
  C  C303  1  0.78523869  0.48416203  0.28797411  1
  O  O304  1  0.77192848  0.02184186  0.35310328  1
  C  C305  1  0.50701571  0.00475906  0.44746304  1
  H  H306  1  0.63835589  0.19693423  0.64169507  1
  C  C307  1  0.67183022  0.31953425  0.60011519  1
  C  C308  1  0.69070314  0.26029859  0.63139642  1
  H  H309  1  0.85630644  0.49051754  0.59572249  1
  N  N310  1  0.56813867  0.40099772  0.55585977  1
  H  H311  1  0.60507600  0.18324855  0.52236563  1
  C  C312  1  0.75586722  0.37110047  0.72969644  1
  C  C313  1  0.81842953  0.31845518  0.50124848  1
  H  H314  1  0.76135311  0.25622668  0.55274262  1
  H  H315  1  0.90891666  0.12074943  0.53694767  1
  N  N316  1  0.73386200  0.40287757  0.58815633  1
  C  C317  1  0.83677971  0.35416522  0.63435520  1
  C  C318  1  0.50405830  0.07356000  0.61455698  1
  C  C319  1  0.88746112  0.09857120  0.56282021  1
  C  C320  1  0.57633667  0.32528983  0.58244943  1
  O  O321  1  0.94343914  0.28542205  0.71632740  1
  H  H322  1  0.88635069  0.34755634  0.51126043  1
  H  H323  1  0.90472180  0.37406501  0.64671428  1
  H  H324  1  0.79624307  0.21298268  0.67099787  1
  C  C325  1  0.91625641  0.08868440  0.62475273  1
  C  C326  1  0.83498992  0.01815437  0.62672340  1
  C  C327  1  0.93759574  0.13144202  0.59244629  1
  C  C328  1  0.74972427  0.26616300  0.52443503  1
  H  H329  1  0.81504458  0.43287640  0.72602118  1
  C  C330  1  0.77592010  0.27208185  0.64901177  1
  O  O331  1  0.89346900  0.10982917  0.72533897  1
  C  C332  1  0.81299231  0.41919750  0.60396663  1
  C  C333  1  0.77889094  0.25517904  0.72776639  1
  C  C334  1  0.88086341  0.22191294  0.72211924  1
  H  H335  1  0.96447206  0.09889336  0.64793666  1
  O  O336  1  0.57376275  0.01231238  0.74903201  1
  C  C337  1  0.66670445  0.22737998  0.51036356  1
  H  H338  1  0.56442831  0.05062748  0.59741643  1
  C  C339  1  0.71131972  0.17334700  0.73321836  1
  H  H340  1  0.73117472  0.08095298  0.73357959  1
  C  C341  1  0.58961634  0.32551688  0.73778753  1
  C  C342  1  0.61856283  0.21033163  0.73774547  1
  C  C343  1  0.66264911  0.40705941  0.73512664  1
  H  H344  1  0.51859691  0.35750270  0.73985499  1
  C  C345  1  0.80602068  0.02915705  0.56519075  1
  C  C346  1  0.54517847  0.11890115  0.74465436  1
  H  H347  1  0.64105620  0.00616327  0.64744412  1
  O  O348  1  0.95433222  0.06242986  0.94387402  1
  H  H349  1  0.90374675  0.49750809  0.87135977  1
  H  H350  1  0.82380350  0.32554712  0.83806131  1
  H  H351  1  0.72702758  0.38370812  0.78636601  1
  C  C352  1  0.56850623  0.37578858  0.84189231  1
  H  H353  1  0.90742023  0.09258204  0.84483277  1
  C  C354  1  0.82155769  0.41624193  0.82854283  1
  C  C355  1  0.92903227  0.08275621  0.91480857  1
  C  C356  1  0.76589709  0.01868524  0.99420952  1
  H  H357  1  0.57023567  0.28020509  0.84224550  1
  C  C358  1  0.86650803  0.01748144  0.85720688  1
  O  O359  1  0.96037248  0.17041957  0.89739805  1
  C  C360  1  0.50842465  0.44759133  0.82175805  1
  C  C361  1  0.56968292  0.18845871  0.90598164  1
  H  H362  1  0.68007676  0.38550710  0.87784203  1
  O  O363  1  0.86654326  0.03387129  0.78875281  1
  C  C364  1  0.63113668  0.43892345  0.86207623  1
  H  H365  1  0.68511808  0.08137989  0.95125181  1
  C  C366  1  0.86455854  0.00429617  0.89338425  1
  C  C367  1  0.68740945  0.02386685  0.97274318  1
  Cu  Cu368  1  0.97031933  0.04229288  0.75686029  1
  C  C369  1  0.76593536  0.45001493  0.79997184  1
  C  C370  1  0.52885282  0.59399283  0.11390916  1
  C  C371  1  0.83743389  0.64428344  0.13782891  1
  C  C372  1  0.79468004  0.70356745  0.04110763  1
  H  H373  1  0.99962016  0.90680684  0.12694690  1
  H  H374  1  0.66709665  0.92216103  0.03289550  1
  N  N375  1  0.51563943  0.91404673  0.03323133  1
  N  N376  1  0.57692861  0.78461922  0.09550668  1
  C  C377  1  0.85601645  0.79427323  0.03519865  1
  C  C378  1  0.53244140  0.74019586  0.06860772  1
  H  H379  1  0.72762157  0.69890375  0.18453226  1
  C  C380  1  0.53163785  0.79192267  0.03206662  1
  H  H381  1  0.86453565  0.83012831  0.00894207  1
  C  C382  1  0.60349580  0.89861128  0.01577734  1
  H  H383  1  0.74401094  0.58640133  0.08220394  1
  C  C384  1  0.65630916  0.71900556  0.19489554  1
  N  N385  1  0.60506038  0.97321868  0.14170814  1
  C  C386  1  0.84947773  0.70106853  0.10088593  1
  N  N387  1  0.57931674  0.69976658  0.17750700  1
  O  O388  1  0.87156947  0.69260779  0.16339428  1
  N  N389  1  0.58391613  0.67267064  0.12806745  1
  C  C390  1  0.79563195  0.65357799  0.07485864  1
  H  H391  1  0.94262114  0.79705778  0.14985689  1
  N  N392  1  0.62986377  0.77158519  0.22610826  1
  C  C393  1  0.91500192  0.84567364  0.06092752  1
  C  C394  1  0.91242984  0.79338543  0.09644723  1
  N  N395  1  0.65520806  0.89495826  0.09157444  1
  N  N396  1  0.50543355  0.62771448  0.07856437  1
  O  O397  1  0.78447207  0.56370380  0.13795899  1
  H  H398  1  0.78834219  0.97057063  0.16581613  1
  C  C399  1  0.53278407  0.80492888  0.22938970  1
  H  H400  1  0.76988304  0.63840014  0.24251721  1
  C  C401  1  0.66385967  0.97478213  0.11449227  1
  H  H402  1  0.52956714  0.95710218  0.05675901  1
  N  N403  1  0.96453398  0.94399321  0.05239010  1
  O  O404  1  0.69947588  0.58260051  0.00681939  1
  N  N405  1  0.95872269  0.83510173  0.12492790  1
  C  C406  1  0.74727796  0.66620629  0.00717501  1
  N  N407  1  0.62165429  0.71362584  0.38179582  1
  N  N408  1  0.88293873  0.79490625  0.44380652  1
  Cu  Cu409  1  0.76286108  0.84964911  0.45217688  1
  O  O410  1  0.94602082  0.65080083  0.32629519  1
  C  C411  1  0.73949551  0.65795599  0.49475632  1
  N  N412  1  0.91664095  0.77937378  0.40302811  1
  C  C413  1  0.64710593  0.66233081  0.44467749  1
  H  H414  1  0.85419904  0.83669391  0.33644970  1
  Cu  Cu415  1  0.89593926  0.95198325  0.48530331  1
  Cu  Cu416  1  0.61252061  0.78545930  0.31111488  1
  C  C417  1  0.94637351  0.74589576  0.46286275  1
  C  C418  1  0.99424458  0.72922797  0.40422979  1
  C  C419  1  0.75713231  0.91614534  0.30106738  1
  C  C420  1  0.54783983  0.89028198  0.38214837  1
  C  C421  1  0.69881398  0.79967268  0.25188920  1
  C  C422  1  0.82384874  0.73207181  0.28977609  1
  C  C423  1  0.81675707  0.82683012  0.31211478  1
  C  C424  1  0.63008803  0.50187568  0.48399251  1
  H  H425  1  0.51101404  0.96741949  0.37512116  1
  N  N426  1  0.58589423  0.82198512  0.35925484  1
  Cu  Cu427  1  0.66428412  0.60422334  0.34825130  1
  N  N428  1  0.71178260  0.70616998  0.46536516  1
  N  N429  1  0.57097879  0.84525036  0.41489887  1
  C  C430  1  0.88859562  0.64143619  0.30395075  1
  C  C431  1  0.70134430  0.90185089  0.27168886  1
  C  C432  1  0.77218455  0.71941324  0.25883957  1
  C  C433  1  0.60064234  0.55899383  0.45339884  1
  H  H434  1  0.65292817  0.96904531  0.26458238  1
  C  C435  1  0.61582503  0.74088200  0.41379302  1
  H  H436  1  0.52873260  0.72813251  0.47969020  1
  C  C437  1  0.53792034  0.88964600  0.44789361  1
  N  N438  1  0.53810597  0.58719477  0.32460581  1
  C  C439  1  0.51871257  0.82293946  0.47776913  1
  C  C440  1  0.55032605  0.53727106  0.29212318  1
  N  N441  1  0.50496379  0.84779244  0.29233754  1
  O  O442  1  0.87567659  0.52490562  0.28664247  1
  H  H443  1  0.54610489  0.52662683  0.43660586  1
  N  N444  1  0.71240809  0.52085325  0.30729272  1
  N  N445  1  0.59542356  0.70829944  0.72758315  1
  O  O446  1  0.56715912  0.85562267  0.62035518  1
  O  O447  1  0.68714632  0.92192343  0.54104011  1
  H  H448  1  0.79565008  0.70213264  0.50886125  1
  C  C449  1  0.84798980  0.92465001  0.68467812  1
  N  N450  1  0.92056882  0.81977331  0.52167342  1
  C  C451  1  0.59145028  0.59762529  0.71785486  1
  H  H452  1  0.90327450  0.89428419  0.56536325  1
  C  C453  1  0.96252314  0.71510792  0.57477473  1
  C  C454  1  0.97680761  0.61104189  0.55615837  1
  C  C455  1  0.93139814  0.81324798  0.55622260  1
  H  H456  1  0.78868935  0.85896767  0.73330873  1
  Cu  Cu457  1  0.55504015  0.88281759  0.71766904  1
  C  C458  1  0.95285672  0.91789926  0.68388987  1
  H  H459  1  0.97938163  0.72416169  0.60405774  1
  N  N460  1  0.64447947  0.52968028  0.73915751  1
  H  H461  1  0.71397098  0.92995743  0.60101072  1
  H  H462  1  0.94856986  0.85577465  0.62973333  1
  N  N463  1  0.78634668  0.88913181  0.70814946  1
  O  O464  1  0.51552981  0.82642225  0.67440605  1
  C  C465  1  0.96663101  0.61746829  0.51889565  1
  C  C466  1  0.52053842  0.88674275  0.64512818  1
  H  H467  1  0.98278867  0.53805098  0.50217879  1
  N  N468  1  0.79803074  0.96749679  0.65781611  1
  H  H469  1  0.55230543  0.57274931  0.69333209  1
  N  N470  1  0.67741799  0.93186308  0.69342806  1
  C  C471  1  0.69838565  0.97078154  0.66361852  1
  C  C472  1  0.77459623  0.98940069  0.59807625  1
  H  H473  1  0.70964188  0.52453922  0.53311543  1
  C  C474  1  0.69843118  0.55404143  0.50530660  1
  C  C475  1  0.99424106  0.88763121  0.65126923  1
  O  O476  1  0.97407941  0.62777735  0.67700175  1
  C  C477  1  0.75358239  0.98268348  0.53375346  1
  C  C478  1  0.94648235  0.72686752  0.50301480  1
  O  O479  1  0.78174475  0.98975743  0.50214098  1
  N  N480  1  0.58089694  0.62242325  0.84572762  1
  C  C481  1  0.77025798  0.84420414  0.85479800  1
  C  C482  1  0.71516579  0.69588477  0.94044690  1
  O  O483  1  0.78508636  0.87465459  0.77976980  1
  N  N484  1  0.73536482  0.72905031  0.90681925  1
  H  H485  1  0.55756196  0.91363433  0.79970649  1
  C  C486  1  0.82912725  0.91197167  0.91076629  1
  C  C487  1  0.77791474  0.82693003  0.89197978  1
  C  C488  1  0.51507573  0.56859092  0.82538794  1
  C  C489  1  0.86855673  0.50543679  0.84573311  1
  C  C490  1  0.69362688  0.62619007  0.89414229  1
  N  N491  1  0.80996742  0.64588426  0.80633640  1
  H  H492  1  0.74353170  0.77449615  0.83792068  1
  H  H493  1  0.84373592  0.91663908  0.93995318  1
  H  H494  1  0.58953415  0.93563111  0.86398224  1
  C  C495  1  0.62940076  0.55975996  0.86702140  1
  C  C496  1  0.81662014  0.93405579  0.83857982  1
  H  H497  1  0.91115719  0.69301998  0.84026634  1
  H  H498  1  0.97069205  0.60217850  0.75758255  1
  C  C499  1  0.53713957  0.93850211  0.95403994  1
  N  N500  1  0.67527897  0.60342998  0.92834051  1
  O  O501  1  0.76047816  0.72449960  0.97761350  1
  C  C502  1  0.87002687  0.61719028  0.83102090  1
  H  H503  1  0.53268545  0.65730086  0.99597433  1
  C  C504  1  0.68491072  0.60514291  0.76316661  1
  C  C505  1  0.52543274  0.88732593  0.85498762  1
  C  C506  1  0.75679415  0.56847751  0.79097467  1
  C  C507  1  0.82044464  0.94343377  0.79921454  1
  C  C508  1  0.60897984  0.94928583  0.97997382  1
  H  H509  1  0.53019015  0.99378674  0.92947965  1
  C  C510  1  0.50868853  0.87518098  0.81905706  1
  N  N511  1  0.65438584  0.71285845  0.75562568  1
