# generated using pymatgen
data_CuH9C15N5O4
_symmetry_space_group_name_H-M   'P 1'
_cell_length_a   11.31075498
_cell_length_b   15.55064101
_cell_length_c   36.64573793
_cell_angle_alpha   90.00000000
_cell_angle_beta   90.00000000
_cell_angle_gamma   90.00000000
_symmetry_Int_Tables_number   1
_chemical_formula_structural   CuH9C15N5O4
_chemical_formula_sum   'Cu16 H144 C240 N80 O64'
_cell_volume   6445.60016215
_cell_formula_units_Z   16
loop_
 _symmetry_equiv_pos_site_id
 _symmetry_equiv_pos_as_xyz
  1  'x, y, z'
loop_
 _atom_site_type_symbol
 _atom_site_label
 _atom_site_symmetry_multiplicity
 _atom_site_fract_x
 _atom_site_fract_y
 _atom_site_fract_z
 _atom_site_occupancy
  C  C0  1  0.45347280  0.05890614  0.19889931  1
  C  C1  1  0.20101850  0.41233841  0.07692154  1
  H  H2  1  0.49825810  0.45929717  0.20131751  1
  C  C3  1  0.13142300  0.44595431  0.04736038  1
  H  H4  1  0.36153303  0.07038792  0.20458803  1
  O  O5  1  0.00894948  0.38528537  0.22311032  1
  O  O6  1  0.39998577  0.48847923  0.14499562  1
  N  N7  1  0.06939105  0.39702227  0.02000574  1
  O  O8  1  0.36649771  0.35576813  0.12467088  1
  C  C9  1  0.34628159  0.43498224  0.12525512  1
  H  H10  1  0.21418549  0.34316031  0.08086958  1
  H  H11  1  0.32896066  0.04496962  0.00498824  1
  C  C12  1  0.25306437  0.46987997  0.10010729  1
  O  O13  1  0.34215168  0.22212336  0.02893478  1
  C  C14  1  0.35217830  0.00377139  0.02976881  1
  C  C15  1  0.36277442  0.28345601  0.00650242  1
  C  C16  1  0.43891051  0.11623932  0.06487230  1
  C  C17  1  0.41551312  0.04226549  0.06178514  1
  C  C18  1  0.44357663  0.20309344  0.06052063  1
  N  N19  1  0.45664406  0.32664348  0.00070524  1
  N  N20  1  0.04008426  0.09181196  0.13119606  1
  C  C21  1  0.12631065  0.03129133  0.14029994  1
  H  H22  1  0.17063547  0.03549093  0.11424990  1
  Cu  Cu23  1  0.48107502  0.26198343  0.15098732  1
  H  H24  1  0.45170273  0.43883795  0.07542023  1
  C  C25  1  0.44839658  0.47720866  0.05109720  1
  H  H26  1  0.35464316  0.46722572  0.04276533  1
  O  O27  1  0.17576767  0.02938421  0.43948019  1
  N  N28  1  0.03948736  0.23726793  0.45039291  1
  C  C29  1  0.31818292  0.18686512  0.41410647  1
  H  H30  1  0.26420259  0.05384095  0.34183497  1
  C  C31  1  0.27969002  0.11318703  0.39542726  1
  H  H32  1  0.29252509  0.19151808  0.44301760  1
  N  N33  1  0.38884843  0.16975947  0.30199004  1
  C  C34  1  0.35187240  0.09627472  0.28986403  1
  N  N35  1  0.33845808  0.05086245  0.26294699  1
  H  H36  1  0.19819597  0.23259030  0.30823154  1
  C  C37  1  0.19861782  0.04166666  0.40840743  1
  N  N38  1  0.11816683  0.26730536  0.47500060  1
  O  O39  1  0.38173157  0.34176483  0.45013004  1
  C  C40  1  0.29591300  0.10964059  0.35769491  1
  O  O41  1  0.09565981  0.40064853  0.37477050  1
  C  C42  1  0.37617910  0.25510298  0.39595419  1
  C  C43  1  0.40162762  0.33404810  0.41855495  1
  H  H44  1  0.13357462  0.42974938  0.44436403  1
  C  C45  1  0.35527022  0.17590965  0.33905876  1
  H  H46  1  0.07914857  0.19420979  0.28362203  1
  H  H47  1  0.17261579  0.46734269  0.32097472  1
  C  C48  1  0.38819757  0.25275532  0.35849045  1
  O  O49  1  0.00465595  0.38103727  0.28816684  1
  H  H50  1  0.39061377  0.45729484  0.31774338  1
  C  C51  1  0.09649081  0.45703660  0.46994744  1
  N  N52  1  0.12165943  0.24635920  0.29521142  1
  H  H53  1  0.13661219  0.41427806  0.49093034  1
  O  O54  1  0.45184940  0.40086781  0.40044620  1
  H  H55  1  0.41435759  0.31394672  0.34508211  1
  C  C56  1  0.06660779  0.31026078  0.29215349  1
  C  C57  1  0.01766668  0.45259663  0.37413171  1
  H  H58  1  0.42836808  0.47788226  0.50316286  1
  C  C59  1  0.09662569  0.22992328  0.50725778  1
  C  C60  1  0.09764481  0.29795642  0.56868853  1
  N  N61  1  0.23473908  0.48838736  0.57016589  1
  H  H62  1  0.32676053  0.13304776  0.59782322  1
  N  N63  1  0.24790052  0.19206970  0.55593411  1
  H  H64  1  0.20771630  0.24741818  0.64372970  1
  H  H65  1  0.44726059  0.32183881  0.53508948  1
  H  H66  1  0.05759662  0.15205143  0.57673199  1
  C  C67  1  0.30052081  0.47446299  0.54580354  1
  O  O68  1  0.40404721  0.22749878  0.72153456  1
  O  O69  1  0.34679027  0.15685333  0.67355507  1
  N  N70  1  0.21982481  0.32659435  0.69685942  1
  H  H71  1  0.32072467  0.31331907  0.50353321  1
  N  N72  1  0.46026585  0.45406003  0.67307950  1
  C  C73  1  0.41356435  0.16030327  0.69980201  1
  C  C74  1  0.26288531  0.18483194  0.59127634  1
  C  C75  1  0.35663356  0.34727858  0.52802136  1
  C  C76  1  0.34281567  0.46055314  0.67719901  1
  N  N77  1  0.11787223  0.29587673  0.60419934  1
  C  C78  1  0.16083565  0.24196485  0.54460137  1
  H  H79  1  0.29140413  0.34728575  0.55213758  1
  N  N80  1  0.00054231  0.17498066  0.50496711  1
  H  H81  1  0.01332582  0.33246487  0.56223586  1
  C  C82  1  0.27483239  0.38380274  0.68950514  1
  C  C83  1  0.20300283  0.24414075  0.61425655  1
  O  O84  1  0.08987770  0.21015737  0.73900113  1
  C  C85  1  0.49768908  0.02356467  0.68389453  1
  O  O86  1  0.07847975  0.05779224  0.63855638  1
  N  N87  1  0.37201281  0.44384445  0.52051324  1
  H  H88  1  0.07249975  0.00969385  0.52156769  1
  Cu  Cu89  1  0.25083946  0.25278350  0.74178845  1
  C  C90  1  0.00682532  0.01521477  0.62447886  1
  H  H91  1  0.48000751  0.01638026  0.56289316  1
  H  H92  1  0.47817855  0.23291658  0.62161414  1
  H  H93  1  0.09029214  0.39588459  0.64544035  1
  H  H94  1  0.01382158  0.32923818  0.71909555  1
  H  H95  1  0.42588161  0.01991698  0.66341801  1
  H  H96  1  0.37790015  0.32444462  0.90046104  1
  N  N97  1  0.02067462  0.40281062  0.88777373  1
  C  C98  1  0.06734210  0.37782635  0.85584400  1
  H  H99  1  0.49129123  0.16090115  0.95209969  1
  C  C100  1  0.14631832  0.39646815  0.79124305  1
  N  N101  1  0.20566173  0.32551167  0.78816990  1
  C  C102  1  0.27800702  0.30861759  0.85299061  1
  C  C103  1  0.29570819  0.35114138  0.88593228  1
  N  N104  1  0.26399278  0.27322468  0.82587899  1
  H  H105  1  0.22188063  0.35171663  0.90622713  1
  H  H106  1  0.01808840  0.11293399  0.96255422  1
  O  O107  1  0.36046482  0.39748377  0.95225683  1
  N  N108  1  0.27431330  0.06381776  0.92729771  1
  C  C109  1  0.09074718  0.41526944  0.98432477  1
  O  O110  1  0.06268937  0.17634084  0.88038992  1
  N  N111  1  0.48331683  0.12516682  0.84800281  1
  H  H112  1  0.43165378  0.24004088  0.82661643  1
  C  C113  1  0.10769011  0.43745594  0.82948814  1
  C  C114  1  0.33193752  0.06943810  0.76714516  1
  C  C115  1  0.44468144  0.38248320  0.97498899  1
  N  N116  1  0.11209156  0.43646667  0.76010467  1
  Cu  Cu117  1  0.35123759  0.08241515  0.88095749  1
  O  O118  1  0.34474091  0.45834251  0.89382975  1
  N  N119  1  0.25059385  0.10222992  0.78812041  1
  C  C120  1  0.13500125  0.07922122  0.78495978  1
  H  H121  1  0.06678402  0.30377701  0.85484260  1
  H  H122  1  0.41972918  0.10027316  0.76878239  1
  C  C123  1  0.19884505  0.09789160  0.94411257  1
  H  H124  1  0.11193412  0.06619724  0.81454097  1
  C  C125  1  0.10953971  0.13879478  0.96074556  1
  C  C126  1  0.11233986  0.01247241  0.75546209  1
  H  H127  1  0.18936520  0.47953350  0.94111123  1
  H  H128  1  0.29280328  0.30290948  0.98529119  1
  C  C129  1  0.37781111  0.47052824  0.92447388  1
  N  N130  1  0.03561790  0.35590576  0.96563835  1
  H  H131  1  0.09563048  0.02242427  0.85940058  1
  H  H132  1  0.12148651  0.20283135  0.97367516  1
  O  O133  1  0.01461177  0.15257060  0.78909297  1
  C  C134  1  0.17049957  0.49045623  0.96978263  1
  C  C135  1  0.00007073  0.01012000  0.85238395  1
  H  H136  1  0.03985763  0.34935290  0.93741345  1
  C  C137  1  0.01504055  0.48750498  0.89118757  1
  C  C138  1  0.01190559  0.20834793  0.76382642  1
  H  H139  1  0.25551577  0.49474139  0.98448544  1
  C  C140  1  0.36841069  0.88976666  0.06765866  1
  C  C141  1  0.32459207  0.92116924  0.03323575  1
  C  C142  1  0.12499823  0.68042495  0.06615794  1
  H  H143  1  0.38616428  0.73853886  0.24535178  1
  N  N144  1  0.06158176  0.96397543  0.19377067  1
  O  O145  1  0.05727580  0.69677075  0.03802922  1
  O  O146  1  0.16824795  0.73293059  0.08600419  1
  N  N147  1  0.38419590  0.81878778  0.15348741  1
  C  C148  1  0.22894935  0.60000068  0.23489520  1
  N  N149  1  0.32986659  0.57437236  0.21823400  1
  C  C150  1  0.48793881  0.57092571  0.05635146  1
  C  C151  1  0.23149583  0.55964555  0.09719059  1
  C  C152  1  0.12829742  0.64415839  0.21311309  1
  C  C153  1  0.14345422  0.96621056  0.16869694  1
  C  C154  1  0.09218109  0.74348515  0.17100559  1
  C  C155  1  0.15813696  0.58714031  0.06949279  1
  N  N156  1  0.16923250  0.69511297  0.18838226  1
  H  H157  1  0.20678905  0.91418944  0.16714111  1
  C  C158  1  0.47717917  0.76846095  0.24135127  1
  H  H159  1  0.26685634  0.60645284  0.11770191  1
  C  C160  1  0.42690161  0.95143643  0.08798365  1
  H  H161  1  0.36188292  0.82321974  0.07445528  1
  C  C162  1  0.45350942  0.84109427  0.17884341  1
  H  H163  1  0.03767795  0.55517433  0.02354979  1
  C  C164  1  0.25321851  0.88129829  0.00271193  1
  C  C165  1  0.44551360  0.88308740  0.14185786  1
  C  C166  1  0.10009788  0.53179894  0.04469234  1
  H  H167  1  0.14035370  0.77968957  0.15022158  1
  O  O168  1  0.21785158  0.80430972  0.00895053  1
  N  N169  1  0.48017130  0.94510164  0.11976295  1
  C  C170  1  0.00876404  0.64968170  0.22533594  1
  H  H171  1  0.47681606  0.99114799  0.20336803  1
  N  N172  1  0.40531005  0.54614273  0.24381570  1
  N  N173  1  0.20332991  0.84259627  0.24431942  1
  C  C174  1  0.14626778  0.68737668  0.49101364  1
  C  C175  1  0.30607248  0.97545822  0.28112068  1
  N  N176  1  0.23105496  0.57754762  0.27093805  1
  H  H177  1  0.08973071  0.89405940  0.41590903  1
  C  C178  1  0.13630690  0.59341760  0.29685767  1
  C  C179  1  0.08644693  0.91425645  0.38769239  1
  O  O180  1  0.16150790  0.98048700  0.37957231  1
  H  H181  1  0.26233802  0.83183955  0.34175518  1
  H  H182  1  0.06298699  0.71863208  0.27623347  1
  C  C183  1  0.11704914  0.52455429  0.32179769  1
  C  C184  1  0.13850951  0.55167525  0.47544182  1
  Cu  Cu185  1  0.00020548  0.90272513  0.31511336  1
  C  C186  1  0.22332141  0.83629605  0.27864457  1
  N  N187  1  0.25463060  0.66481117  0.47638212  1
  N  N188  1  0.31764534  0.93825751  0.31464036  1
  N  N189  1  0.07587809  0.61407467  0.49241307  1
  N  N190  1  0.24559158  0.58333334  0.46482192  1
  C  C191  1  0.05801677  0.66492025  0.29624223  1
  C  C192  1  0.26795427  0.86194686  0.31380850  1
  H  H193  1  0.47753785  0.55102403  0.31825561  1
  C  C194  1  0.24723217  0.91221164  0.25536855  1
  H  H195  1  0.33033719  0.55610496  0.33715508  1
  C  C196  1  0.02918439  0.52538123  0.34740190  1
  N  N197  1  0.02189123  0.87061971  0.36739450  1
  C  C198  1  0.34484439  0.54529018  0.27532553  1
  C  C199  1  0.38771182  0.52659715  0.31363211  1
  H  H200  1  0.30481493  0.82548046  0.49439565  1
  C  C201  1  0.21036161  0.83918920  0.49988000  1
  H  H202  1  0.10268568  0.57113717  0.61534885  1
  C  C203  1  0.03565305  0.57719167  0.73999359  1
  C  C204  1  0.25733156  0.75778789  0.59072870  1
  H  H205  1  0.26056420  0.82681708  0.59409128  1
  H  H206  1  0.39362423  0.60767554  0.53658227  1
  C  C207  1  0.33070348  0.72251149  0.56415182  1
  C  C208  1  0.17985165  0.69974680  0.60905328  1
  C  C209  1  0.32941580  0.63666817  0.55629585  1
  H  H210  1  0.18346688  0.54571544  0.67530424  1
  C  C211  1  0.17066823  0.61264643  0.60067983  1
  O  O212  1  0.47428798  0.75708899  0.51936312  1
  H  H213  1  0.29864838  0.66630759  0.66735917  1
  C  C214  1  0.46042642  0.60766367  0.66526926  1
  C  C215  1  0.41415052  0.78380226  0.54409724  1
  N  N216  1  0.00953194  0.79645605  0.51754415  1
  O  O217  1  0.03277028  0.80308009  0.71626841  1
  C  C218  1  0.27939428  0.53925824  0.67517490  1
  C  C219  1  0.09859942  0.73356453  0.63532943  1
  C  C220  1  0.24585540  0.57962968  0.57359010  1
  O  O221  1  0.09778392  0.81343826  0.64239807  1
  O  O222  1  0.42930901  0.85939764  0.55867199  1
  C  C223  1  0.07058890  0.66225520  0.73588343  1
  N  N224  1  0.34217092  0.60856069  0.67039355  1
  N  N225  1  0.19636182  0.92188762  0.50713012  1
  C  C226  1  0.18610596  0.69109420  0.74526079  1
  N  N227  1  0.19990764  0.97246146  0.73700879  1
  O  O228  1  0.02549611  0.68341791  0.64957895  1
  C  C229  1  0.08737298  0.93970561  0.51607471  1
  H  H230  1  0.49599476  0.67165561  0.66130071  1
  H  H231  1  0.36602482  0.95678687  0.72747807  1
  O  O232  1  0.49538376  0.87588857  0.63391594  1
  C  C233  1  0.11839545  0.77651636  0.50418125  1
  H  H234  1  0.21066349  0.75855599  0.74517598  1
  C  C235  1  0.30859116  0.99885164  0.74368974  1
  O  O236  1  0.16152780  0.89099413  0.84391623  1
  H  H237  1  0.11869262  0.86699693  0.90488328  1
  H  H238  1  0.40662063  0.62112579  0.89168438  1
  N  N239  1  0.15513074  0.71177927  0.95202940  1
  Cu  Cu240  1  0.28825074  0.84424031  0.86278546  1
  N  N241  1  0.19285205  0.83644257  0.91191164  1
  O  O242  1  0.21494059  0.92552742  0.97857508  1
  N  N243  1  0.35940618  0.96322207  0.87222334  1
  H  H244  1  0.23026140  0.68376802  0.96202602  1
  C  C245  1  0.47210665  0.70582828  0.93226999  1
  C  C246  1  0.43785103  0.55861438  0.97739141  1
  C  C247  1  0.04753457  0.86276396  0.84058344  1
  C  C248  1  0.17376579  0.77231281  0.93265270  1
  O  O249  1  0.46900315  0.60189229  0.75410300  1
  C  C250  1  0.42953565  0.62695474  0.92015553  1
  H  H251  1  0.42523732  0.50631275  0.99691421  1
  O  O252  1  0.03324475  0.78672017  0.84026707  1
  C  C253  1  0.41888125  0.54961884  0.93985058  1
  O  O254  1  0.42296538  0.73650158  0.76528870  1
  N  N255  1  0.09425547  0.52194227  0.83464168  1
  Cu  Cu256  1  0.34238376  0.97595121  0.82155883  1
  C  C257  1  0.23710426  0.54934858  0.76461373  1
  H  H258  1  0.46776202  0.85590481  0.79363046  1
  O  O259  1  0.43204164  0.78889146  0.87818427  1
  Cu  Cu260  1  0.30810520  0.93808194  0.92228372  1
  N  N261  1  0.47642838  0.91535160  0.80746811  1
  C  C262  1  0.26914028  0.63272453  0.75809528  1
  C  C263  1  0.39046930  0.66225443  0.75883792  1
  H  H264  1  0.12217247  0.55551414  0.97090991  1
  H  H265  1  0.44244870  0.94657374  0.87373631  1
  C  C266  1  0.05407992  0.54978758  0.86521821  1
  C  C267  1  0.47336945  0.79133723  0.91117099  1
  H  H268  1  0.04135843  0.62095847  0.86498198  1
  C  C269  1  0.11792760  0.52267046  0.75763556  1
  Cu  Cu270  1  0.06092149  0.76668076  0.99689695  1
  C  C271  1  0.48694771  0.63436686  0.99084316  1
  H  H272  1  0.29764210  0.50635697  0.77807130  1
  C  C273  1  0.98427568  0.06996668  0.15694224  1
  H  H274  1  0.84750942  0.22199757  0.10119788  1
  Cu  Cu275  1  0.75442796  0.15315476  0.16691912  1
  O  O276  1  0.74951372  0.44484695  0.07070975  1
  C  C277  1  0.87554929  0.23397713  0.07203266  1
  O  O278  1  0.83947740  0.16320405  0.05790189  1
  H  H279  1  0.86305686  0.27320279  0.20137345  1
  H  H280  1  0.50299680  0.43899281  0.03021177  1
  N  N281  1  0.79935344  0.27097247  0.18059702  1
  C  C282  1  0.77085141  0.10137619  0.07964582  1
  N  N283  1  0.79456755  0.09024673  0.20831927  1
  H  H284  1  0.59322457  0.47855182  0.15959166  1
  C  C285  1  0.90045686  0.34381992  0.12684839  1
  Cu  Cu286  1  0.63597738  0.28763261  0.20117058  1
  C  C287  1  0.85250453  0.30822657  0.15240608  1
  H  H288  1  0.57847683  0.11255964  0.02058903  1
  O  O289  1  0.50392798  0.25651072  0.07428689  1
  C  C290  1  0.93094813  0.31142041  0.06500482  1
  N  N291  1  0.53661253  0.36010598  0.17208532  1
  C  C292  1  0.82251100  0.49886039  0.21499779  1
  N  N293  1  0.94729757  0.36427812  0.09476609  1
  C  C294  1  0.51434441  0.44712745  0.17255103  1
  C  C295  1  0.88793121  0.04298054  0.21831352  1
  O  O296  1  0.70779426  0.12278531  0.10310776  1
  H  H297  1  0.73564946  0.08057927  0.22931547  1
  H  H298  1  0.92399300  0.04988647  0.02994524  1
  C  C299  1  0.97734702  0.02484917  0.19033034  1
  N  N300  1  0.59016299  0.17499409  0.17803019  1
  C  C301  1  0.81005947  0.01311463  0.07633770  1
  C  C302  1  0.98454208  0.33162496  0.02776500  1
  C  C303  1  0.52624485  0.11976769  0.18805513  1
  C  C304  1  0.96599145  0.41382232  0.24909639  1
  H  H305  1  0.98446688  0.42325994  0.09035197  1
  H  H306  1  0.85457228  0.46907675  0.18891997  1
  H  H307  1  0.72358328  0.36882242  0.00456186  1
  C  C308  1  0.60936659  0.19674457  0.41086148  1
  H  H309  1  0.77446246  0.15989919  0.45533013  1
  C  C310  1  0.71008207  0.16809372  0.34035424  1
  H  H311  1  0.79720983  0.35033471  0.42616091  1
  C  C312  1  0.71038649  0.29980023  0.30280862  1
  H  H313  1  0.99697922  0.44528044  0.46896844  1
  Cu  Cu314  1  0.80056039  0.40108543  0.36196825  1
  Cu  Cu315  1  0.60341466  0.44544019  0.41018003  1
  C  C316  1  0.86881280  0.13320231  0.44894783  1
  H  H317  1  0.87821464  0.13344025  0.41896741  1
  H  H318  1  0.87036458  0.48422553  0.30688413  1
  C  C319  1  0.67482452  0.27452471  0.40935913  1
  H  H320  1  0.65150904  0.20308344  0.35920639  1
  C  C321  1  0.96545846  0.18516256  0.46816959  1
  C  C322  1  0.82717249  0.06798651  0.28711437  1
  N  N323  1  0.72828900  0.34232389  0.40807903  1
  O  O324  1  0.71448054  0.32961088  0.27307224  1
  O  O325  1  0.69239735  0.34322436  0.33277005  1
  H  H326  1  0.83892349  0.18449986  0.25633054  1
  H  H327  1  0.52459738  0.19846367  0.39518993  1
  O  O328  1  0.91655559  0.44697817  0.39060853  1
  C  C329  1  0.80533771  0.15812186  0.28141767  1
  C  C330  1  0.74583964  0.20445049  0.30703400  1
  C  C331  1  0.74083893  0.08400061  0.34618600  1
  H  H332  1  0.86920229  0.06563603  0.45826970  1
  C  C333  1  0.71375813  0.04447988  0.38455775  1
  O  O334  1  0.66276270  0.08705042  0.41058103  1
  H  H335  1  0.59747112  0.17914326  0.44111477  1
  C  C336  1  0.79953981  0.03243163  0.32126700  1
  H  H337  1  0.78994329  0.08881847  0.49797509  1
  C  C338  1  0.88314761  0.01224139  0.25759103  1
  O  O339  1  0.70017607  0.48340940  0.44660000  1
  C  C340  1  0.86573063  0.47482732  0.25001364  1
  N  N341  1  0.52551457  0.00105299  0.58729054  1
  C  C342  1  0.83902417  0.38929831  0.72745183  1
  C  C343  1  0.56574043  0.05691039  0.60299659  1
  C  C344  1  0.66289431  0.20229471  0.53005858  1
  C  C345  1  0.71407156  0.34198023  0.51805750  1
  C  C346  1  0.67668377  0.03551279  0.73306410  1
  C  C347  1  0.72718782  0.24556953  0.66167032  1
  C  C348  1  0.59259401  0.10228314  0.73233734  1
  H  H349  1  0.76075098  0.30051228  0.67678417  1
  C  C350  1  0.99058314  0.10607948  0.56621472  1
  H  H351  1  0.86425895  0.13843692  0.66514778  1
  C  C352  1  0.83858016  0.07605805  0.52338830  1
  H  H353  1  0.80261541  0.19840665  0.57515068  1
  C  C354  1  0.63516456  0.27886936  0.50484348  1
  C  C355  1  0.94123503  0.12375015  0.53194755  1
  N  N356  1  0.58050337  0.20636119  0.50741955  1
  C  C357  1  0.92717698  0.32885354  0.73370144  1
  C  C358  1  0.62156990  0.12297684  0.62337650  1
  C  C359  1  0.99700025  0.37296975  0.65157366  1
  C  C360  1  0.75484996  0.23130010  0.55297014  1
  N  N361  1  0.77691033  0.31314466  0.54537318  1
  N  N362  1  0.62529123  0.26915442  0.64673262  1
  H  H363  1  0.99551934  0.31189726  0.66909109  1
  C  C364  1  0.78106287  0.16361816  0.65363453  1
  C  C365  1  0.92391983  0.44671939  0.66774141  1
  H  H366  1  0.72598205  0.40655514  0.50782949  1
  N  N367  1  0.85668483  0.44947567  0.69947034  1
  C  C368  1  0.86856917  0.01192141  0.73811242  1
  N  N369  1  0.72866556  0.10198082  0.63649545  1
  C  C370  1  0.95253540  0.03722617  0.58723313  1
  C  C371  1  0.56741558  0.20895764  0.62889938  1
  C  C372  1  0.80121505  0.00917600  0.54498748  1
  H  H373  1  0.95202754  0.35367419  0.62419139  1
  C  C374  1  0.50392295  0.09501815  0.70594827  1
  N  N375  1  0.77847603  0.05365167  0.74903006  1
  N  N376  1  0.73861745  0.39270698  0.92693524  1
  O  O377  1  0.88600009  0.22607390  0.86810920  1
  H  H378  1  0.55281382  0.08377075  0.84923774  1
  H  H379  1  0.73840634  0.12578138  0.84940574  1
  C  C380  1  0.81325216  0.26201835  0.78566009  1
  H  H381  1  0.62050968  0.49560462  0.77823031  1
  C  C382  1  0.77440501  0.04820919  0.96615231  1
  N  N383  1  0.62769629  0.10956281  0.92654036  1
  H  H384  1  0.77965728  0.06238124  0.90452232  1
  C  C385  1  0.50415069  0.19228852  0.82856286  1
  O  O386  1  0.53983063  0.36280671  0.80013672  1
  C  C387  1  0.96083354  0.16672402  0.86925433  1
  C  C388  1  0.61572829  0.09647266  0.99223226  1
  H  H389  1  0.79381490  0.32258536  0.86419752  1
  N  N390  1  0.71929599  0.06189514  0.99806941  1
  C  C391  1  0.61752691  0.31147162  0.79775524  1
  C  C392  1  0.57237218  0.12490973  0.95784950  1
  C  C393  1  0.92055043  0.07913905  0.85406583  1
  H  H394  1  0.53993405  0.40253766  0.97582539  1
  C  C395  1  0.74113288  0.43166291  0.99368896  1
  H  H396  1  0.70457234  0.39032158  0.83822842  1
  O  O397  1  0.60276473  0.21594585  0.81184570  1
  H  H398  1  0.80024814  0.20781413  0.80435426  1
  C  C399  1  0.80208687  0.07215397  0.84449750  1
  C  C400  1  0.73039280  0.32490290  0.77941419  1
  C  C401  1  0.77756198  0.39576090  0.85951630  1
  H  H402  1  0.86263681  0.41960735  0.84764815  1
  C  C403  1  0.74077352  0.44543388  0.95612686  1
  C  C404  1  0.75072273  0.43882950  0.89611695  1
  C  C405  1  0.73310653  0.07515987  0.93035786  1
  H  H406  1  0.96756955  0.49307117  0.91774696  1
  N  N407  1  0.94764490  0.30014244  0.99780294  1
  C  C408  1  0.68673593  0.48028249  0.75666870  1
  C  C409  1  0.91453939  0.27119503  0.76311090  1
  H  H410  1  0.59920692  0.16158724  0.75037862  1
  C  C411  1  0.74673519  0.40270740  0.75603362  1
  C  C412  1  0.59841776  0.78768507  0.03827984  1
  C  C413  1  0.82269965  0.86610538  0.09779230  1
  H  H414  1  0.95016738  0.78735091  0.06874609  1
  N  N415  1  0.60944582  0.87664002  0.21682172  1
  Cu  Cu416  1  0.74521967  0.62752703  0.11194815  1
  C  C417  1  0.77052660  0.94672601  0.10033760  1
  C  C418  1  0.56266656  0.69834576  0.05003426  1
  H  H419  1  0.90882807  0.79437672  0.17322320  1
  H  H420  1  0.69488112  0.95665382  0.11891473  1
  C  C421  1  0.76405870  0.50679197  0.01410192  1
  C  C422  1  0.77596960  0.50822017  0.05439228  1
  N  N423  1  0.56548383  0.67643627  0.08513034  1
  O  O424  1  0.82673818  0.72426191  0.12073877  1
  C  C425  1  0.73095805  0.55654989  0.21762552  1
  H  H426  1  0.60960286  0.63908183  0.24559038  1
  N  N427  1  0.93504552  0.70946929  0.21400679  1
  C  C428  1  0.77957977  0.80157200  0.12654520  1
  C  C429  1  0.67896307  0.59250735  0.24909182  1
  O  O430  1  0.71872425  0.56265056  0.15275391  1
  C  C431  1  0.92988598  0.91241768  0.04457614  1
  O  O432  1  0.70983071  0.81931536  0.14852232  1
  C  C433  1  0.67057521  0.58658952  0.18346199  1
  O  O434  1  0.59579596  0.64176060  0.18581910  1
  C  C435  1  0.51904237  0.82241583  0.21211292  1
  C  C436  1  0.61123217  0.86075723  0.02983920  1
  O  O437  1  0.81606534  0.57546604  0.07201608  1
  C  C438  1  0.90709758  0.85112581  0.07091186  1
  N  N439  1  0.51889390  0.59713847  0.08947421  1
  C  C440  1  0.89137525  0.99704491  0.04789128  1
  H  H441  1  0.83034356  0.64026169  0.02088550  1
  H  H442  1  0.61921000  0.92927805  0.02281169  1
  N  N443  1  0.50430409  0.63296138  0.02958627  1
  H  H444  1  0.98398748  0.92290404  0.24426873  1
  C  C445  1  0.97589115  0.74859153  0.18394852  1
  H  H446  1  0.97210921  0.61411230  0.24857069  1
  H  H447  1  0.75461343  0.90445648  0.24829587  1
  C  C448  1  0.67518254  0.85922507  0.24500645  1
  C  C449  1  0.80180962  0.58969469  0.00130186  1
  N  N450  1  0.99493006  0.88586920  0.01468646  1
  C  C451  1  0.89091211  0.74396791  0.32718638  1
  H  H452  1  0.80876152  0.96382461  0.32494730  1
  N  N453  1  0.94037147  0.94558125  0.26855442  1
  H  H454  1  0.90748137  0.55753335  0.45626236  1
  N  N455  1  0.53387707  0.75723386  0.27045137  1
  H  H456  1  0.67802970  0.78299525  0.29891608  1
  H  H457  1  0.87966016  0.60391878  0.36664253  1
  C  C458  1  0.66820953  0.52155998  0.47666631  1
  C  C459  1  0.72533763  0.55972494  0.28199025  1
  N  N460  1  0.67339870  0.59303950  0.31356070  1
  O  O461  1  0.82000000  0.73644837  0.35115925  1
  C  C462  1  0.63713969  0.79700063  0.27127525  1
  C  C463  1  0.87891107  0.57724713  0.48374014  1
  C  C464  1  0.68554233  0.55395572  0.34319377  1
  C  C465  1  0.95978787  0.60029282  0.34951903  1
  H  H466  1  0.71765384  0.55284895  0.39322800  1
  C  C467  1  0.97104060  0.66447163  0.32388755  1
  O  O468  1  0.75528683  0.97402336  0.38929343  1
  O  O469  1  0.89962025  0.81399770  0.30811174  1
  O  O470  1  0.57124402  0.51221402  0.48889193  1
  H  H471  1  0.97692247  0.82389561  0.38133030  1
  C  C472  1  0.82220696  0.50388315  0.28306789  1
  N  N473  1  0.69972828  0.51349447  0.37104636  1
  C  C474  1  0.76565543  0.56690903  0.49731501  1
  C  C475  1  0.80521726  0.63437322  0.55416555  1
  H  H476  1  0.98901714  0.67535044  0.56206264  1
  N  N477  1  0.90706901  0.51801514  0.64973261  1
  H  H478  1  0.90325073  0.89528048  0.53147343  1
  N  N479  1  0.92761615  0.95856747  0.71787061  1
  O  O480  1  0.82984365  0.71449445  0.60897370  1
  H  H481  1  0.72146663  0.90395668  0.71469753  1
  O  O482  1  0.95286719  0.95072887  0.64118723  1
  C  C483  1  0.56068867  0.87125711  0.66272743  1
  C  C484  1  0.92505987  0.64469852  0.54392483  1
  N  N485  1  0.67160861  0.62889918  0.73138752  1
  C  C486  1  0.71323321  0.54900441  0.73070386  1
  O  O487  1  0.65183147  0.66668479  0.59615383  1
  C  C488  1  0.72242441  0.59862215  0.53130038  1
  C  C489  1  0.75664480  0.67223866  0.58908958  1
  H  H490  1  0.63355748  0.58927648  0.54336115  1
  N  N491  1  0.83342616  0.56963766  0.67074960  1
  C  C492  1  0.79554333  0.52840557  0.70064263  1
  H  H493  1  0.94879095  0.55329824  0.73308860  1
  Cu  Cu494  1  0.85847209  0.70377395  0.66001507  1
  C  C495  1  0.66131232  0.95553060  0.71264829  1
  O  O496  1  0.88745875  0.71040009  0.71189744  1
  C  C497  1  0.95841457  0.61178905  0.50944143  1
  O  O498  1  0.63444394  0.81736045  0.66683700  1
  O  O499  1  0.65690214  0.88980754  0.54990030  1
  C  C500  1  0.57479626  0.95309063  0.68732405  1
  H  H501  1  0.81811908  0.93963008  0.59707050  1
  Cu  Cu502  1  0.56323756  0.87304221  0.59016633  1
  C  C503  1  0.51971979  0.52679860  0.66592059  1
  C  C504  1  0.69091152  0.96107945  0.53184579  1
  Cu  Cu505  1  0.99738581  0.87673675  0.67708072  1
  C  C506  1  0.99572504  0.87899389  0.52167280  1
  C  C507  1  0.98991713  0.72844356  0.72181788  1
  C  C508  1  0.85235378  0.98893188  0.57813113  1
  C  C509  1  0.99870141  0.99649928  0.74184386  1
  O  O510  1  0.64267026  0.98047028  0.50482415  1
  H  H511  1  0.61389374  0.51852690  0.66271749  1
  H  H512  1  0.60776093  0.79578631  0.74587477  1
  C  C513  1  0.60493290  0.64222124  0.75959589  1
  H  H514  1  0.85078454  0.80401093  0.97186609  1
  H  H515  1  0.63347580  0.59755317  0.78135413  1
  C  C516  1  0.59557824  0.91946988  0.81340495  1
  C  C517  1  0.86417026  0.76866051  0.79159667  1
  H  H518  1  0.81713502  0.72791411  0.77126512  1
  C  C519  1  0.79991856  0.60817071  0.96402196  1
  C  C520  1  0.95919455  0.93045460  0.84107378  1
  C  C521  1  0.50576092  0.70917273  0.96869642  1
  C  C522  1  0.74230897  0.53923306  0.93869912  1
  C  C523  1  0.58132843  0.74580896  0.76724155  1
  H  H524  1  0.95114424  0.78168043  0.77866834  1
  O  O525  1  0.50254938  0.85871029  0.92386501  1
  O  O526  1  0.82639831  0.72439033  0.92016551  1
  C  C527  1  0.95490933  0.92876577  0.98696797  1
  C  C528  1  0.66687894  0.84097918  0.79968012  1
  O  O529  1  0.88767817  0.75366500  0.98195551  1
  C  C530  1  0.83931757  0.69327459  0.95050937  1
  C  C531  1  0.79894931  0.85710419  0.79759981  1
  C  C532  1  0.75846957  0.99047594  0.83489686  1
  H  H533  1  0.89006751  0.73438244  0.81804797  1
  H  H534  1  0.65584636  0.56253295  0.92909816  1
  H  H535  1  0.80559771  0.85523181  0.85623497  1
  N  N536  1  0.62251337  0.76371529  0.79998495  1
  C  C537  1  0.83095032  0.90595129  0.83572737  1
  H  H538  1  0.82509380  0.90052392  0.77502061  1
  H  H539  1  0.53423351  0.77393269  0.97962882  1
  N  N540  1  0.64455914  0.99363163  0.82624151  1
  N  N541  1  0.94761668  0.94364033  0.95241380  1
  N  N542  1  0.77931424  0.52338560  0.90069893  1
  C  C543  1  0.88513858  0.99774071  0.96939009  1
