# generated using pymatgen
data_ZnH4(CN5)2
_symmetry_space_group_name_H-M   'P 1'
_cell_length_a   18.51219653
_cell_length_b   17.16349958
_cell_length_c   12.30860203
_cell_angle_alpha   90.00000000
_cell_angle_beta   90.00000000
_cell_angle_gamma   90.00000000
_symmetry_Int_Tables_number   1
_chemical_formula_structural   ZnH4(CN5)2
_chemical_formula_sum   'Zn16 H64 C32 N160'
_cell_volume   3910.86230974
_cell_formula_units_Z   16
loop_
 _symmetry_equiv_pos_site_id
 _symmetry_equiv_pos_as_xyz
  1  'x, y, z'
loop_
 _atom_site_type_symbol
 _atom_site_label
 _atom_site_symmetry_multiplicity
 _atom_site_fract_x
 _atom_site_fract_y
 _atom_site_fract_z
 _atom_site_occupancy
  C  C0  1  0.13817168  0.22427761  0.07553779  1
  N  N1  1  0.16792897  0.16169716  0.12031201  1
  N  N2  1  0.25015017  0.05820064  0.13765856  1
  N  N3  1  0.29360509  0.23968903  0.32624861  1
  N  N4  1  0.37853201  0.21473737  0.08866886  1
  N  N5  1  0.20938950  0.07599380  0.42735031  1
  N  N6  1  0.40930789  0.15287082  0.07755327  1
  N  N7  1  0.16109294  0.03136504  0.32429789  1
  N  N8  1  0.03005993  0.09107656  0.24925193  1
  Zn  Zn9  1  0.12813214  0.06761118  0.17563052  1
  H  H10  1  0.46052993  0.16930578  0.36125382  1
  N  N11  1  0.05861695  0.20356017  0.34703152  1
  C  C12  1  0.35103332  0.21314068  0.38233117  1
  C  C13  1  0.01778567  0.13377892  0.33640841  1
  N  N14  1  0.33737284  0.21683450  0.48656360  1
  Zn  Zn15  1  0.40323888  0.03268484  0.11873051  1
  H  H16  1  0.05086408  0.16015794  0.01788066  1
  H  H17  1  0.42598621  0.20348083  0.24607097  1
  N  N18  1  0.41610874  0.19419711  0.32775669  1
  H  H19  1  0.04988925  0.23312367  0.42136641  1
  H  H20  1  0.06720542  0.24157968  0.28088094  1
  N  N21  1  0.06750872  0.21705873  0.03194532  1
  N  N22  1  0.29409400  0.00698868  0.14997161  1
  N  N23  1  0.01196246  0.20167668  0.62129688  1
  C  C24  1  0.42779394  0.03454860  0.62910759  1
  N  N25  1  0.37014086  0.01672104  0.55935171  1
  N  N26  1  0.44404872  0.10581221  0.66888846  1
  N  N27  1  0.06212803  0.15887904  0.60300938  1
  Zn  Zn28  1  0.40928938  0.20633214  0.61297937  1
  H  H29  1  0.32867484  0.05898032  0.54435554  1
  N  N30  1  0.03139966  0.07596271  0.52297333  1
  N  N31  1  0.49993639  0.09814941  0.77482409  1
  H  H32  1  0.00315568  0.03781427  0.56770341  1
  N  N33  1  0.20928399  0.03350584  0.50730558  1
  H  H34  1  0.08057291  0.04708952  0.51116351  1
  N  N35  1  0.24918179  0.24656938  0.50517497  1
  H  H36  1  0.32690732  0.02235196  0.89354896  1
  N  N37  1  0.27882268  0.47631299  0.30158228  1
  N  N38  1  0.19319418  0.42027536  0.06570858  1
  N  N39  1  0.26067339  0.38564361  0.15733508  1
  N  N40  1  0.47570643  0.41758974  0.10035809  1
  N  N41  1  0.42311681  0.41489902  0.04218918  1
  C  C42  1  0.27169734  0.42863456  0.23811292  1
  N  N43  1  0.06231790  0.38061947  0.46093813  1
  N  N44  1  0.15529157  0.36868845  0.02933152  1
  N  N45  1  0.18187775  0.28349103  0.09469782  1
  N  N46  1  0.22405016  0.25717499  0.41369542  1
  N  N47  1  0.48916011  0.32821378  0.43461899  1
  Zn  Zn48  1  0.28757136  0.26765502  0.16098175  1
  C  C49  1  0.38623319  0.37377886  0.71201438  1
  N  N50  1  0.37191601  0.29888498  0.71629101  1
  N  N51  1  0.29352560  0.35073325  0.85126857  1
  N  N52  1  0.30509759  0.28640171  0.81208645  1
  N  N53  1  0.42996940  0.41374996  0.63247748  1
  H  H54  1  0.44870481  0.38346315  0.56594547  1
  N  N55  1  0.34753841  0.41705497  0.77814184  1
  C  C56  1  0.04390426  0.47616917  0.73580613  1
  H  H57  1  0.12832342  0.45364786  0.61558586  1
  N  N58  1  0.10102890  0.49041445  0.66091230  1
  N  N59  1  0.06242218  0.34726800  0.54761995  1
  H  H60  1  0.43745805  0.47295760  0.61751606  1
  N  N61  1  0.02778860  0.40553297  0.76907338  1
  N  N62  1  0.49910728  0.25428516  0.52889825  1
  N  N63  1  0.43884673  0.47966147  0.93753887  1
  H  H64  1  0.05138794  0.25952942  0.98493308  1
  C  C65  1  0.05277006  0.55102720  0.06041064  1
  N  N66  1  0.21133504  0.55340011  0.31186068  1
  N  N67  1  0.33075803  0.55813502  0.10078375  1
  Zn  Zn68  1  0.16798779  0.62210696  0.18610796  1
  H  H69  1  0.31644953  0.54286455  0.17838642  1
  N  N70  1  0.06938819  0.57519007  0.15782939  1
  N  N71  1  0.04426877  0.72430696  0.29533803  1
  N  N72  1  0.13879739  0.71702832  0.27377012  1
  C  C73  1  0.28537252  0.59681346  0.02344457  1
  H  H74  1  0.09431984  0.67642029  0.46484102  1
  C  C75  1  0.19950174  0.56685863  0.41540835  1
  N  N76  1  0.23041940  0.63628017  0.05444719  1
  H  H77  1  0.28375012  0.73373583  0.30051259  1
  H  H78  1  0.36307997  0.51385068  0.07332189  1
  C  C79  1  0.17087611  0.74390931  0.35969475  1
  N  N80  1  0.24808206  0.73867650  0.36369435  1
  H  H81  1  0.05516189  0.59831178  0.48768189  1
  N  N82  1  0.45621711  0.73527899  0.70906588  1
  N  N83  1  0.29512627  0.59671172  0.91614574  1
  H  H84  1  0.14601536  0.57787558  0.96506033  1
  N  N85  1  0.40338826  0.62184812  0.74069390  1
  C  C86  1  0.41684714  0.69330345  0.77554537  1
  N  N87  1  0.18054141  0.58272009  0.50078209  1
  N  N88  1  0.07444683  0.66718669  0.65245661  1
  N  N89  1  0.19126813  0.68220308  0.93872445  1
  H  H90  1  0.35556383  0.69571257  0.91669602  1
  N  N91  1  0.22868364  0.66057752  0.86309413  1
  Zn  Zn92  1  0.36080617  0.52631870  0.82793134  1
  N  N93  1  0.46761297  0.67699794  0.59918233  1
  C  C94  1  0.11294000  0.71847051  0.68496106  1
  N  N95  1  0.44364351  0.61214956  0.61761720  1
  N  N96  1  0.09696079  0.63177549  0.51754506  1
  H  H97  1  0.11094080  0.54619272  0.63284413  1
  N  N98  1  0.38586371  0.72974484  0.86919543  1
  N  N99  1  0.09734812  0.54728078  0.96439575  1
  H  H100  1  0.09048560  0.52049681  0.88704166  1
  N  N101  1  0.00185913  0.53214150  0.77399545  1
  N  N102  1  0.03444696  0.75963094  0.38070433  1
  N  N103  1  0.32279581  0.87356470  0.42953686  1
  N  N104  1  0.09472006  0.83767620  0.03885407  1
  N  N105  1  0.38532771  0.86231678  0.45648295  1
  C  C106  1  0.13743145  0.96696447  0.36964514  1
  N  N107  1  0.10312295  0.97634849  0.08062840  1
  N  N108  1  0.12377916  0.77741913  0.42668456  1
  H  H109  1  0.08241937  0.86375285  0.34747516  1
  C  C110  1  0.03910887  0.96890861  0.03279782  1
  N  N111  1  0.09361706  0.91355146  0.30371579  1
  H  H112  1  0.09129057  0.90285782  0.22234948  1
  N  N113  1  0.14123172  0.87975612  0.07463329  1
  N  N114  1  0.15824020  0.95339030  0.46785315  1
  N  N115  1  0.42088519  0.93629991  0.01834641  1
  N  N116  1  0.47335451  0.85852759  0.05965688  1
  H  H117  1  0.27734510  0.76975718  0.42334565  1
  N  N118  1  0.02024880  0.89976539  0.00104494  1
  N  N119  1  0.45372509  0.88229614  0.86781551  1
  N  N120  1  0.06287863  0.90003215  0.61347037  1
  C  C121  1  0.05116562  0.89717946  0.71811438  1
  C  C122  1  0.30932834  0.85175052  0.62484468  1
  H  H123  1  0.15950716  0.89399948  0.78111335  1
  N  N124  1  0.37927496  0.85040313  0.59783880  1
  Zn  Zn125  1  0.15675961  0.85239140  0.54685166  1
  Zn  Zn126  1  0.45816780  0.85812481  0.70897841  1
  H  H127  1  0.32774966  0.80980838  0.78553100  1
  N  N128  1  0.26461460  0.86292929  0.54484117  1
  N  N129  1  0.46842158  0.98141032  0.67027633  1
  N  N130  1  0.28819070  0.83372832  0.73558301  1
  H  H131  1  0.40441352  0.77731948  0.90935070  1
  C  C132  1  0.41208102  0.93608043  0.91104854  1
  N  N133  1  0.10471506  0.90018776  0.79904817  1
  H  H134  1  0.24049950  0.79859436  0.74022493  1
  H  H135  1  0.10056637  0.88712478  0.87768173  1
  H  H136  1  0.35619230  0.96197480  0.52682190  1
  N  N137  1  0.36229675  0.98350143  0.85274446  1
  H  H138  1  0.36059784  0.99623835  0.76894259  1
  N  N139  1  0.14942034  0.77160679  0.68246266  1
  N  N140  1  0.49516101  0.83012591  0.97517753  1
  H  H141  1  0.49147965  0.80567525  0.50637890  1
  H  H142  1  0.81626531  0.14116557  0.02969038  1
  N  N143  1  0.80581097  0.16093486  0.10743235  1
  N  N144  1  0.76786691  0.09200962  0.20839388  1
  C  C145  1  0.76177336  0.12111460  0.29651533  1
  H  H146  1  0.84247685  0.16453686  0.49366576  1
  N  N147  1  0.93587737  0.02614860  0.34892062  1
  N  N148  1  0.74800854  0.14064520  0.38262392  1
  N  N149  1  0.95846310  0.02382778  0.25543289  1
  N  N150  1  0.50257036  0.01605660  0.18930987  1
  N  N151  1  0.59425652  0.03351684  0.33085583  1
  N  N152  1  0.52921553  0.02929109  0.33066871  1
  N  N153  1  0.98008782  0.10108587  0.41184405  1
  C  C154  1  0.56438111  0.01009796  0.13494375  1
  H  H155  1  0.76189243  0.19239173  0.08552483  1
  N  N156  1  0.87488066  0.22423830  0.15430103  1
  N  N157  1  0.62195169  0.01675833  0.19414792  1
  H  H158  1  0.94447537  0.01965853  0.00560780  1
  N  N159  1  0.99165217  0.03695933  0.02963699  1
  H  H160  1  0.97514809  0.05932300  0.10556112  1
  N  N161  1  0.56735099  0.01032591  0.01787651  1
  N  N162  1  0.91216022  0.15603167  0.80929798  1
  N  N163  1  0.91732965  0.20086409  0.88546719  1
  N  N164  1  0.51265091  0.02797886  0.78122808  1
  N  N165  1  0.89631808  0.05608332  0.84469363  1
  N  N166  1  0.84073352  0.04079526  0.89584600  1
  H  H167  1  0.63350194  0.12747237  0.54447741  1
  H  H168  1  0.55288583  0.12110147  0.61278662  1
  H  H169  1  0.91401144  0.17988886  0.56938679  1
  N  N170  1  0.58264967  0.14862496  0.55387855  1
  C  C171  1  0.56420865  0.22444071  0.51524714  1
  N  N172  1  0.86047336  0.19679137  0.55960200  1
  N  N173  1  0.55044724  0.33773868  0.39966799  1
  N  N174  1  0.66559816  0.39313627  0.16034971  1
  N  N175  1  0.73329343  0.43764963  0.31724773  1
  N  N176  1  0.93348513  0.31693771  0.27376944  1
  C  C177  1  0.69869564  0.38075320  0.25264428  1
  N  N178  1  0.98158296  0.42221934  0.40244087  1
  N  N179  1  0.69787263  0.30390453  0.27693457  1
  N  N180  1  0.66977082  0.25313481  0.16123875  1
  N  N181  1  0.65317529  0.30284160  0.09575287  1
  N  N182  1  0.60694604  0.26682064  0.45336158  1
  H  H183  1  0.74877472  0.42723192  0.39422162  1
  H  H184  1  0.78011463  0.45804819  0.16094325  1
  H  H185  1  0.85930682  0.40061310  0.03258465  1
  N  N186  1  0.91704457  0.35999981  0.34963921  1
  N  N187  1  0.81493723  0.47091258  0.10053341  1
  H  H188  1  0.96086703  0.45729898  0.45970038  1
  H  H189  1  0.70782058  0.49377185  0.31484825  1
  H  H190  1  0.86340450  0.47299080  0.13432147  1
  N  N191  1  0.53439722  0.48157029  0.04378983  1
  Zn  Zn192  1  0.71488177  0.25162397  0.42504074  1
  N  N193  1  0.85431868  0.27267195  0.22211071  1
  H  H194  1  0.86761098  0.29752318  0.02193744  1
  H  H195  1  0.99394160  0.46179038  0.34015242  1
  N  N196  1  0.88292009  0.35097802  0.99135841  1
  N  N197  1  0.84470803  0.41186662  0.63003577  1
  N  N198  1  0.95443295  0.41702517  0.85832521  1
  N  N199  1  0.94551549  0.28896891  0.84001598  1
  C  C200  1  0.92835799  0.34826028  0.89986386  1
  Zn  Zn201  1  0.99756395  0.30950662  0.68782017  1
  N  N202  1  0.89088046  0.32983860  0.62142949  1
  N  N203  1  0.78687960  0.40109384  0.58149102  1
  C  C204  1  0.84991126  0.27964316  0.56997979  1
  N  N205  1  0.79249432  0.30966407  0.52598174  1
  N  N206  1  0.98717042  0.52238700  0.05070721  1
  N  N207  1  0.84846928  0.60503923  0.43709004  1
  H  H208  1  0.97172663  0.64849557  0.07603596  1
  N  N209  1  0.95168316  0.52471198  0.18294771  1
  N  N210  1  0.66454463  0.64286689  0.37869436  1
  N  N211  1  0.63298354  0.57558819  0.22845916  1
  C  C212  1  0.68194984  0.61498371  0.28162534  1
  N  N213  1  0.55520511  0.57789270  0.30884644  1
  N  N214  1  0.57119473  0.61686649  0.38751613  1
  N  N215  1  0.75569455  0.60918768  0.24235846  1
  Zn  Zn216  1  0.71093508  0.73123357  0.46022288  1
  H  H217  1  0.78816735  0.65585267  0.25676688  1
  H  H218  1  0.76161094  0.59692385  0.16335491  1
  N  N219  1  0.95452687  0.70281444  0.05368111  1
  H  H220  1  0.54511191  0.74900216  0.42910922  1
  N  N221  1  0.99646188  0.55187028  0.24505311  1
  C  C222  1  0.78710575  0.51887608  0.01100672  1
  N  N223  1  0.89716168  0.57813405  0.49207337  1
  H  H224  1  0.99691772  0.73296205  0.08128788  1
  Zn  Zn225  1  0.63771504  0.50108277  0.10199323  1
  N  N226  1  0.71795209  0.53922951  0.00180157  1
  C  C227  1  0.94584217  0.70562662  0.93369250  1
  C  C228  1  0.84952439  0.69026146  0.60074546  1
  N  N229  1  0.82917800  0.54493102  0.93238675  1
  N  N230  1  0.54238220  0.55808026  0.87620077  1
  N  N231  1  0.77165660  0.60216214  0.85187135  1
  N  N232  1  0.90449245  0.63983141  0.60427906  1
  N  N233  1  0.97171333  0.64355714  0.88307911  1
  Zn  Zn234  1  0.97913916  0.63789811  0.72307708  1
  Zn  Zn235  1  0.93157637  0.53124215  0.90062703  1
  N  N236  1  0.71287483  0.60026510  0.89661895  1
  H  H237  1  0.59444527  0.57721877  0.87760519  1
  H  H238  1  0.51653820  0.58585702  0.81260429  1
  N  N239  1  0.83213212  0.73832570  0.69517001  1
  C  C240  1  0.50578162  0.50691821  0.95041352  1
  N  N241  1  0.81052139  0.68205338  0.50831160  1
  H  H242  1  0.85147499  0.73544757  0.77415274  1
  N  N243  1  0.64027769  0.86749546  0.29918595  1
  H  H244  1  0.60548378  0.84928448  0.36389920  1
  C  C245  1  0.71439083  0.85034113  0.28018470  1
  N  N246  1  0.83009129  0.77971927  0.26544196  1
  N  N247  1  0.83998054  0.84082197  0.21446651  1
  N  N248  1  0.74634132  0.78613571  0.32037150  1
  N  N249  1  0.75979156  0.89497184  0.23178870  1
  H  H250  1  0.61755631  0.91708548  0.27319085  1
  N  N251  1  0.54364012  0.79793089  0.47763523  1
  Zn  Zn252  1  0.72881764  0.99240756  0.14392426  1
  H  H253  1  0.79334493  0.83054110  0.07218400  1
  N  N254  1  0.98011547  0.88768663  0.74066267  1
  N  N255  1  0.83822910  0.93957102  0.90116371  1
  C  C256  1  0.78041622  0.91884965  0.95190238  1
  N  N257  1  0.64175913  0.84993357  0.75292342  1
  N  N258  1  0.78117015  0.83402361  0.99012484  1
  C  C259  1  0.58858885  0.81183977  0.57027330  1
  N  N260  1  0.56803457  0.84385905  0.66613012  1
  Zn  Zn261  1  0.93656808  0.87788318  0.89576676  1
  H  H262  1  0.73093413  0.80885301  0.99426719  1
  N  N263  1  0.69348336  0.82896697  0.69910173  1
  N  N264  1  0.93322000  0.89568563  0.61969785  1
  N  N265  1  0.65929032  0.79957953  0.56627338  1
  N  N266  1  0.97857321  0.90540672  0.55066437  1
  N  N267  1  0.91560584  0.75541903  0.88848300  1
  H  H268  1  0.77985749  0.75871255  0.70356705  1
  H  H269  1  0.52236685  0.98506612  0.97879539  1
  H  H270  1  0.61552357  0.99901670  0.97871256  1
  N  N271  1  0.73333293  0.95692848  0.98453886  1
