# generated using pymatgen
data_CuH13C21O5
_symmetry_space_group_name_H-M   'P 1'
_cell_length_a   30.96360206
_cell_length_b   26.98932496
_cell_length_c   10.89204093
_cell_angle_alpha   90.00000000
_cell_angle_beta   90.00000000
_cell_angle_gamma   90.00000000
_symmetry_Int_Tables_number   1
_chemical_formula_structural   CuH13C21O5
_chemical_formula_sum   'Cu18 H234 C378 O90'
_cell_volume   9102.33393432
_cell_formula_units_Z   18
loop_
 _symmetry_equiv_pos_site_id
 _symmetry_equiv_pos_as_xyz
  1  'x, y, z'
loop_
 _atom_site_type_symbol
 _atom_site_label
 _atom_site_symmetry_multiplicity
 _atom_site_fract_x
 _atom_site_fract_y
 _atom_site_fract_z
 _atom_site_occupancy
  C  C0  1  0.22770120  0.20333085  0.32877461  1
  C  C1  1  0.20881841  0.23029796  0.10452151  1
  C  C2  1  0.22817729  0.21064832  0.20236026  1
  H  H3  1  0.11174154  0.20648033  0.37360153  1
  O  O4  1  0.19229904  0.20980687  0.37502810  1
  C  C5  1  0.23131168  0.18536091  0.08945839  1
  H  H6  1  0.18751399  0.08368116  0.16631028  1
  C  C7  1  0.21611771  0.03822241  0.36722916  1
  H  H8  1  0.03790432  0.20906100  0.45218872  1
  C  C9  1  0.17183926  0.02571997  0.31901591  1
  C  C10  1  0.16521034  0.05372300  0.20397020  1
  C  C11  1  0.12570790  0.04030795  0.16768112  1
  H  H12  1  0.19741466  0.11280751  0.42140721  1
  C  C13  1  0.22220911  0.08573283  0.42165769  1
  H  H14  1  0.17434702  0.23712322  0.08459024  1
  C  C15  1  0.10750075  0.20951578  0.47021966  1
  C  C16  1  0.09157658  0.01104453  0.19779940  1
  H  H17  1  0.05924692  0.00994165  0.14966282  1
  C  C18  1  0.24925810  0.00025842  0.37011770  1
  C  C19  1  0.24898024  0.08083461  0.00851784  1
  H  H20  1  0.20974516  0.44496894  0.47389623  1
  C  C21  1  0.13813534  0.48245873  0.45256789  1
  C  C22  1  0.19732034  0.39519655  0.31431622  1
  C  C23  1  0.23452754  0.36474029  0.30209468  1
  C  C24  1  0.05030702  0.31095667  0.06823454  1
  H  H25  1  0.01769588  0.31117864  0.03677179  1
  O  O26  1  0.02900686  0.29795580  0.39498094  1
  H  H27  1  0.10514433  0.32021675  0.34832079  1
  H  H28  1  0.07255288  0.39812265  0.10474522  1
  C  C29  1  0.12780052  0.31927829  0.03637866  1
  O  O30  1  0.18810606  0.42928108  0.24631187  1
  C  C31  1  0.07603948  0.45812593  0.33220896  1
  C  C32  1  0.05692413  0.43295620  0.42966943  1
  C  C33  1  0.01650309  0.40369795  0.42707521  1
  C  C34  1  0.21525677  0.48330829  0.45459490  1
  H  H35  1  0.20435242  0.33205034  0.11202343  1
  H  H36  1  0.20107718  0.32095887  0.43429787  1
  H  H37  1  0.06076274  0.46156653  0.23876450  1
  C  C38  1  0.13457006  0.32028653  0.16586740  1
  C  C39  1  0.05916104  0.30835716  0.19757102  1
  C  C40  1  0.11552479  0.48407020  0.33995759  1
  O  O41  1  0.16131263  0.37857275  0.41268525  1
  H  H42  1  0.14233690  0.40357000  0.39086433  1
  H  H43  1  0.16638746  0.33064397  0.20467697  1
  C  C44  1  0.10123818  0.31661884  0.24701904  1
  C  C45  1  0.02272345  0.30153902  0.28191267  1
  H  H46  1  0.01354274  0.49148741  0.10153205  1
  C  C47  1  0.07988477  0.42182174  0.02493412  1
  C  C48  1  0.12114392  0.44130318  0.00479821  1
  H  H49  1  0.14794097  0.42946152  0.06029513  1
  C  C50  1  0.20222499  0.32773464  0.01046697  1
  C  C51  1  0.09273046  0.20856853  0.73584538  1
  H  H52  1  0.16165533  0.20488614  0.74925565  1
  C  C53  1  0.13418256  0.20866799  0.68819133  1
  C  C54  1  0.05804946  0.21050621  0.64482050  1
  H  H55  1  0.08691908  0.20685794  0.83290225  1
  O  O56  1  0.21618850  0.19684776  0.58006450  1
  C  C57  1  0.14147660  0.20803461  0.55595726  1
  H  H58  1  0.03121519  0.11921116  0.67987202  1
  H  H59  1  0.19685731  0.09059259  0.87880197  1
  C  C60  1  0.18587909  0.20415704  0.51636002  1
  C  C61  1  0.21568537  0.10767646  0.95289146  1
  O  O62  1  0.20729090  0.15202213  0.97343089  1
  C  C63  1  0.01162283  0.22174252  0.69103432  1
  H  H64  1  0.19304182  0.01042228  0.98969907  1
  H  H65  1  0.18579060  0.02928880  0.55835413  1
  C  C66  1  0.06540505  0.21136252  0.51646133  1
  C  C67  1  0.00739498  0.11344749  0.60034363  1
  H  H68  1  0.00616516  0.07408566  0.57190084  1
  H  H69  1  0.01950430  0.13224262  0.51256130  1
  C  C70  1  0.00626438  0.36525161  0.88360172  1
  C  C71  1  0.00141327  0.40942277  0.94415908  1
  C  C72  1  0.22510840  0.31520099  0.51332139  1
  C  C73  1  0.09289026  0.48267653  0.81978852  1
  H  H74  1  0.14946061  0.28376077  0.61227321  1
  C  C75  1  0.24132052  0.33105019  0.94141785  1
  C  C76  1  0.17089579  0.48956041  0.86908969  1
  C  C77  1  0.11815134  0.45594510  0.55275380  1
  O  O78  1  0.00658648  0.37632734  0.51800958  1
  C  C79  1  0.01202222  0.26751549  0.75239015  1
  C  C80  1  0.12694106  0.31625076  0.61931809  1
  C  C81  1  0.21331412  0.32089340  0.63177754  1
  C  C82  1  0.24392503  0.33130254  0.81353446  1
  C  C83  1  0.05331927  0.46163242  0.83527852  1
  H  H84  1  0.08148217  0.31506061  0.88687499  1
  H  H85  1  0.14414309  0.34777336  0.57156279  1
  C  C86  1  0.16349837  0.32168404  0.94579408  1
  H  H87  1  0.13557296  0.45525675  0.64248679  1
  C  C88  1  0.04580850  0.43356771  0.94527415  1
  O  O89  1  0.20183656  0.48372349  0.93756001  1
  H  H90  1  0.02411499  0.46627254  0.77321321  1
  C  C91  1  0.07904978  0.43155923  0.54367630  1
  H  H92  1  0.09657931  0.30834156  0.57324662  1
  C  C93  1  0.20247687  0.32550137  0.75677006  1
  H  H94  1  0.03563605  0.35255814  0.84005064  1
  H  H95  1  0.06418676  0.40996776  0.61774020  1
  H  H96  1  0.04219593  0.28749983  0.76105989  1
  C  C97  1  0.15943850  0.32117791  0.81389346  1
  O  O98  1  0.12310025  0.32033969  0.75410619  1
  C  C99  1  0.12735174  0.47070751  0.90040418  1
  C  C100  1  0.08535450  0.31477863  0.98950530  1
  H  H101  1  0.21369774  0.64868483  0.23682233  1
  C  C102  1  0.17841679  0.51335748  0.43789977  1
  C  C103  1  0.23256914  0.66675886  0.30900109  1
  O  O104  1  0.14218134  0.59821408  0.42541062  1
  C  C105  1  0.17574230  0.56631950  0.42461673  1
  C  C106  1  0.21846861  0.58418084  0.42628801  1
  H  H107  1  0.08889048  0.56006644  0.37139987  1
  C  C108  1  0.23471552  0.63904667  0.42133778  1
  C  C109  1  0.10192273  0.57689084  0.45853182  1
  H  H110  1  0.24918711  0.73093927  0.20256856  1
  H  H111  1  0.13086488  0.50551254  0.26510445  1
  H  H112  1  0.05666896  0.90376824  0.05616785  1
  C  C113  1  0.06541875  0.96087568  0.38365367  1
  C  C114  1  0.02212130  0.96575183  0.34534770  1
  H  H115  1  0.01419412  0.99220230  0.26944570  1
  C  C116  1  0.07008977  0.92982930  0.48761803  1
  H  H117  1  0.24135296  0.96348746  0.33711858  1
  C  C118  1  0.14005434  0.99807974  0.37760166  1
  C  C119  1  0.09954183  0.99193501  0.32104973  1
  O  O120  1  0.14914634  0.97577847  0.49769927  1
  O  O121  1  0.20129025  0.60888076  0.72434207  1
  H  H122  1  0.16359147  0.68636072  0.61789520  1
  C  C123  1  0.16926204  0.70954983  0.69623533  1
  Cu  Cu124  1  0.22664830  0.54435507  0.71824740  1
  C  C125  1  0.18670892  0.68972331  0.80508189  1
  C  C126  1  0.20403117  0.63919789  0.81068436  1
  O  O127  1  0.22079321  0.62407604  0.91082281  1
  C  C128  1  0.19245638  0.71730442  0.91478891  1
  O  O129  1  0.17567111  0.51731610  0.76222075  1
  H  H130  1  0.10031561  0.50713556  0.74646594  1
  H  H131  1  0.10620380  0.54479775  0.52229260  1
  H  H132  1  0.00975620  0.50644683  0.93464614  1
  H  H133  1  0.07995491  0.60526171  0.50517287  1
  H  H134  1  0.20602364  0.70058900  0.99978355  1
  C  C135  1  0.15751469  0.75904771  0.68757837  1
  H  H136  1  0.21840975  0.97083346  0.52915189  1
  C  C137  1  0.18720509  0.98606807  0.55962608  1
  C  C138  1  0.04249216  0.92301445  0.97609421  1
  C  C139  1  0.10828097  0.85655490  0.81335072  1
  H  H140  1  0.01221536  0.80644876  0.77692785  1
  H  H141  1  0.18614713  0.97426335  0.65673521  1
  H  H142  1  0.14589669  0.77862996  0.60181486  1
  H  H143  1  0.03094920  0.83643030  0.91943451  1
  H  H144  1  0.06348706  0.96663323  0.68698995  1
  H  H145  1  0.21965174  0.85223161  0.82635079  1
  C  C146  1  0.17683864  0.76452885  0.90993955  1
  H  H147  1  0.13581094  0.98097855  0.88505074  1
  C  C148  1  0.10784511  0.90824963  0.84217504  1
  C  C149  1  0.18363757  0.92191381  0.84734258  1
  H  H150  1  0.02185923  0.87130648  0.77770862  1
  C  C151  1  0.03775092  0.90436833  0.55403947  1
  H  H152  1  0.10409751  0.91832236  0.51115172  1
  C  C153  1  0.18833785  0.87030959  0.82528722  1
  C  C154  1  0.04303597  0.96224187  0.76988358  1
  O  O155  1  0.07852321  0.82106560  0.79627888  1
  C  C156  1  0.03345109  0.83373201  0.81758622  1
  C  C157  1  0.15181594  0.84148901  0.81096960  1
  C  C158  1  0.14264426  0.94168744  0.85316646  1
  H  H159  1  0.04520514  0.87527027  0.62609318  1
  C  C160  1  0.22339626  0.95513074  0.86988107  1
  C  C161  1  0.16200813  0.78660405  0.79845693  1
  C  C162  1  0.06352500  0.93048664  0.86130207  1
  C  C163  1  0.00020068  0.97519875  0.78203866  1
  C  C164  1  0.22293212  0.99899775  0.94058550  1
  H  H165  1  0.17566847  0.78938834  0.98703840  1
  O  O166  1  0.39853399  0.09736430  0.34924595  1
  C  C167  1  0.41992039  0.13709590  0.32662266  1
  O  O168  1  0.45933613  0.13893445  0.35792813  1
  C  C169  1  0.40028416  0.17991569  0.27373021  1
  C  C170  1  0.35694465  0.18109227  0.23548407  1
  H  H171  1  0.33835344  0.14656222  0.24550444  1
  C  C172  1  0.33826137  0.22251758  0.18314910  1
  C  C173  1  0.42567242  0.22455232  0.25648308  1
  H  H174  1  0.46039377  0.22110364  0.29758727  1
  C  C175  1  0.44848444  0.04421361  0.17211663  1
  H  H176  1  0.43944114  0.08181471  0.13726557  1
  Cu  Cu177  1  0.41572755  0.04078791  0.44311546  1
  H  H178  1  0.30333358  0.22478409  0.16002016  1
  O  O179  1  0.26828810  0.14678256  0.14657162  1
  H  H180  1  0.29773425  0.08697307  0.15834341  1
  C  C181  1  0.27026027  0.10284011  0.10448697  1
  C  C182  1  0.49450473  0.03535327  0.20087725  1
  O  O183  1  0.48337048  0.12205428  0.05334840  1
  H  H184  1  0.38463709  0.00809880  0.18085705  1
  C  C185  1  0.42010282  0.00555035  0.19887695  1
  Cu  Cu186  1  0.48646128  0.08570431  0.43838302  1
  C  C187  1  0.29265060  0.05454935  0.48824087  1
  C  C188  1  0.28854242  0.01039497  0.42264452  1
  H  H189  1  0.25553254  0.19392815  0.38101501  1
  C  C190  1  0.26133562  0.09127715  0.48527797  1
  H  H191  1  0.49514336  0.19375041  0.02524549  1
  C  C192  1  0.27051590  0.29465384  0.49598360  1
  H  H193  1  0.30322018  0.26142789  0.02020631  1
  H  H194  1  0.27620685  0.41575818  0.00050334  1
  H  H195  1  0.48748567  0.39789704  0.42833525  1
  C  C196  1  0.49648196  0.41640279  0.23757041  1
  C  C197  1  0.29798437  0.38725991  0.03010333  1
  C  C198  1  0.49260078  0.38471281  0.33670376  1
  H  H199  1  0.32159248  0.28353395  0.36184250  1
  C  C200  1  0.29979454  0.47962182  0.47869068  1
  H  H201  1  0.26673348  0.45961999  0.20665800  1
  H  H202  1  0.36603147  0.43577476  0.33128503  1
  C  C203  1  0.49868960  0.30013502  0.42219822  1
  H  H204  1  0.43152468  0.30049014  0.20064128  1
  C  C205  1  0.37108708  0.48169779  0.08477819  1
  C  C206  1  0.31198312  0.30042834  0.04503924  1
  H  H207  1  0.39952658  0.46134399  0.04882018  1
  C  C208  1  0.36461964  0.26636381  0.17268684  1
  C  C209  1  0.33151369  0.39850255  0.11178414  1
  H  H210  1  0.49065603  0.45473298  0.24806182  1
  C  C211  1  0.26931394  0.33458186  0.29232021  1
  H  H212  1  0.42296686  0.41659429  0.36741362  1
  H  H213  1  0.28890116  0.33589643  0.20814956  1
  C  C214  1  0.29741740  0.47880737  0.17055744  1
  H  H215  1  0.41002167  0.44044173  0.21705064  1
  C  C216  1  0.39806411  0.41824813  0.29378809  1
  C  C217  1  0.28838747  0.30088928  0.38389348  1
  C  C218  1  0.40973299  0.26788248  0.20844663  1
  H  H219  1  0.43568750  0.37808452  0.08605041  1
  O  O220  1  0.39161760  0.36848915  0.24690204  1
  C  C221  1  0.35922591  0.36117350  0.16610904  1
  C  C222  1  0.34746544  0.31344951  0.12333189  1
  H  H223  1  0.38207501  0.33597963  0.43645488  1
  C  C224  1  0.33492148  0.45442044  0.13064178  1
  C  C225  1  0.28519918  0.33857544  0.00769068  1
  C  C226  1  0.37638054  0.49576532  0.48732536  1
  O  O227  1  0.34080893  0.10761200  0.61390757  1
  O  O228  1  0.41395314  0.19600188  0.71295369  1
  C  C229  1  0.33442569  0.07059300  0.55346759  1
  C  C230  1  0.37280694  0.03419694  0.88952225  1
  H  H231  1  0.40540168  0.04817763  0.90749548  1
  O  O232  1  0.34171328  0.04064845  0.95382122  1
  H  H233  1  0.26944462  0.12743562  0.53294507  1
  C  C234  1  0.39010554  0.22429094  0.77388836  1
  O  O235  1  0.37893562  0.21509902  0.87796989  1
  C  C236  1  0.26036677  0.02852162  0.96005866  1
  H  H237  1  0.44233165  0.17774327  0.96336277  1
  C  C238  1  0.47681659  0.16431026  0.97212699  1
  H  H239  1  0.36886293  0.01379578  0.80126683  1
  O  O240  1  0.36703599  0.03868392  0.54558103  1
  C  C241  1  0.30210550  0.01386830  0.93056688  1
  H  H242  1  0.48947609  0.16203783  0.87665334  1
  C  C243  1  0.39567811  0.49495641  0.79049142  1
  H  H244  1  0.32944345  0.49694652  0.71913096  1
  C  C245  1  0.34208422  0.35583592  0.72805312  1
  C  C246  1  0.34868406  0.41788369  0.55299550  1
  C  C247  1  0.46570173  0.45091335  0.95248649  1
  H  H248  1  0.40503199  0.25307273  0.52566854  1
  H  H249  1  0.28814578  0.27438429  0.56686223  1
  O  O250  1  0.43484226  0.41854624  0.92278313  1
  O  O251  1  0.42701059  0.43794445  0.58372248  1
  H  H252  1  0.46611771  0.40419210  0.70973892  1
  C  C253  1  0.38580760  0.44871687  0.54803275  1
  C  C254  1  0.43483202  0.37179692  0.98340500  1
  C  C255  1  0.37426368  0.32789935  0.53204561  1
  C  C256  1  0.30695951  0.43017335  0.52075742  1
  C  C257  1  0.35472618  0.36462542  0.60383502  1
  H  H258  1  0.28438187  0.39984828  0.52018541  1
  H  H259  1  0.27334235  0.33360718  0.76061735  1
  C  C260  1  0.37445195  0.27304191  0.70262167  1
  H  H261  1  0.45955226  0.34461783  0.95705280  1
  H  H262  1  0.39865255  0.45578419  0.77265512  1
  C  C263  1  0.35377993  0.30846944  0.77166546  1
  H  H264  1  0.41041319  0.38421884  0.72379772  1
  H  H265  1  0.43755457  0.36280496  0.59687990  1
  C  C266  1  0.43519831  0.39735537  0.65646172  1
  H  H267  1  0.34256762  0.30422551  0.86993699  1
  H  H268  1  0.40199719  0.35434389  0.96851939  1
  H  H269  1  0.32006379  0.38006060  0.77220062  1
  C  C270  1  0.38394537  0.28108514  0.57829384  1
  O  O271  1  0.48692883  0.30953048  0.52078418  1
  O  O272  1  0.29839927  0.63626014  0.11587344  1
  C  C273  1  0.33476179  0.61140461  0.12607282  1
  O  O274  1  0.36766050  0.63281113  0.12544965  1
  C  C275  1  0.33355356  0.55502351  0.13813263  1
  C  C276  1  0.40315051  0.57249212  0.36986745  1
  C  C277  1  0.41349409  0.62192706  0.38145531  1
  H  H278  1  0.38338757  0.56292421  0.29017642  1
  H  H279  1  0.40363931  0.64951053  0.31236423  1
  H  H280  1  0.45037490  0.71458597  0.20604450  1
  C  C281  1  0.37095416  0.53278953  0.09119509  1
  H  H282  1  0.33243329  0.55130444  0.42613103  1
  C  C283  1  0.29570280  0.53091728  0.17888133  1
  C  C284  1  0.48200428  0.71976040  0.15728287  1
  H  H285  1  0.26594743  0.55122486  0.21300196  1
  H  H286  1  0.39752210  0.55539622  0.06018531  1
  C  C287  1  0.27841187  0.73036003  0.39057091  1
  O  O288  1  0.43488552  0.72176370  0.44603577  1
  C  C289  1  0.33566481  0.51247334  0.45749483  1
  H  H290  1  0.48274383  0.55250460  0.27447959  1
  H  H291  1  0.28679093  0.57705128  0.41202681  1
  C  C292  1  0.25682278  0.55739820  0.41765143  1
  C  C293  1  0.40805363  0.53708471  0.46818106  1
  C  C294  1  0.25698577  0.50516248  0.44589704  1
  C  C295  1  0.25483254  0.71045548  0.29046504  1
  C  C296  1  0.28010405  0.70212291  0.49865985  1
  C  C297  1  0.43886962  0.63647826  0.48188438  1
  Cu  Cu298  1  0.33402133  0.85806137  0.25558076  1
  C  C299  1  0.48902493  0.76200746  0.08410664  1
  O  O300  1  0.36515227  0.91934166  0.25571013  1
  C  C301  1  0.47763436  0.95413012  0.28737451  1
  O  O302  1  0.30576562  0.79809475  0.28391407  1
  C  C303  1  0.30323731  0.77589259  0.38765364  1
  Cu  Cu304  1  0.38319235  0.75695349  0.46205268  1
  O  O305  1  0.41954604  0.88413405  0.34045667  1
  C  C306  1  0.40439103  0.92085989  0.28397869  1
  C  C307  1  0.45365306  0.80076272  0.08524340  1
  Cu  Cu308  1  0.40842937  0.82134035  0.30245059  1
  C  C309  1  0.43427031  0.96127003  0.25901049  1
  O  O310  1  0.32863900  0.78781228  0.47247490  1
  H  H311  1  0.31482858  0.98406618  0.42305026  1
  H  H312  1  0.48832724  0.91863156  0.32855968  1
  O  O313  1  0.45509603  0.83508268  0.01249910  1
  O  O314  1  0.42096137  0.79265908  0.15345941  1
  C  C315  1  0.34931800  0.56750650  0.78162816  1
  C  C316  1  0.45268315  0.59984502  0.56600330  1
  H  H317  1  0.47395021  0.60979850  0.63944949  1
  C  C318  1  0.30870073  0.58894327  0.75699731  1
  C  C319  1  0.43729077  0.55074149  0.56838091  1
  O  O320  1  0.46840751  0.69625345  0.61185903  1
  C  C321  1  0.38120541  0.59692626  0.84033639  1
  C  C322  1  0.42020374  0.57651560  0.86547675  1
  O  O323  1  0.29876348  0.63071524  0.80543559  1
  O  O324  1  0.27984399  0.56829669  0.68742784  1
  H  H325  1  0.37697690  0.63551257  0.85848582  1
  C  C326  1  0.42844945  0.52394764  0.84863978  1
  H  H327  1  0.44420191  0.60396969  0.90046473  1
  H  H328  1  0.44428705  0.52413033  0.64145248  1
  H  H329  1  0.29773958  0.71725909  0.57438061  1
  C  C330  1  0.35715535  0.51745346  0.75692103  1
  C  C331  1  0.45077886  0.68701460  0.51124003  1
  H  H332  1  0.26313823  0.63828853  0.60583437  1
  Cu  Cu333  1  0.27315776  0.62828735  0.96516058  1
  C  C334  1  0.25987748  0.65711672  0.51545216  1
  H  H335  1  0.49604309  0.57289556  0.88871135  1
  C  C336  1  0.49854418  0.53653049  0.93995531  1
  C  C337  1  0.46573229  0.50139488  0.91459839  1
  C  C338  1  0.48317186  0.99247087  0.54316403  1
  H  H339  1  0.49689219  0.84341416  0.76166322  1
  C  C340  1  0.38619525  0.87119708  0.84462804  1
  Cu  Cu341  1  0.47921606  0.75975729  0.69689990  1
  H  H342  1  0.32724873  0.96336028  0.62328088  1
  H  H343  1  0.49304451  0.90090803  0.96363900  1
  C  C344  1  0.36438936  0.90936344  0.89177631  1
  C  C345  1  0.36890546  0.89553457  0.63296450  1
  C  C346  1  0.40778620  0.81676439  0.66565183  1
  O  O347  1  0.42694182  0.78573731  0.73459997  1
  H  H348  1  0.40641338  0.84784273  0.90815536  1
  H  H349  1  0.26945030  0.90656314  0.78156879  1
  O  O350  1  0.40798459  0.81196104  0.54921560  1
  H  H351  1  0.45109599  0.90354002  0.63581551  1
  O  O352  1  0.44272655  0.98929169  0.52330929  1
  C  C353  1  0.26482350  0.94256660  0.82748924  1
  C  C354  1  0.34637570  0.93739582  0.67884102  1
  C  C355  1  0.30249919  0.96939202  0.86003595  1
  C  C356  1  0.38818266  0.86094508  0.71687153  1
  C  C357  1  0.48323484  0.91286243  0.66477447  1
  C  C358  1  0.34302722  0.94276081  0.80880846  1
  H  H359  1  0.37052072  0.88744732  0.53517689  1
  H  H360  1  0.36570162  0.91721932  0.99101946  1
  C  C361  1  0.60120776  0.10295373  0.25108108  1
  C  C362  1  0.64781532  0.10505376  0.31393127  1
  C  C363  1  0.56567160  0.06932189  0.26367455  1
  C  C364  1  0.68172987  0.08291391  0.24991245  1
  H  H365  1  0.67639468  0.06372776  0.16288309  1
  C  C366  1  0.59553672  0.14170853  0.16768829  1
  H  H367  1  0.56438558  0.04164040  0.33448652  1
  H  H368  1  0.62314176  0.16791943  0.15683134  1
  C  C369  1  0.72273881  0.09313318  0.29268014  1
  C  C370  1  0.55692738  0.14920081  0.10390522  1
  C  C371  1  0.73672415  0.11979459  0.39845335  1
  C  C372  1  0.66049568  0.13556255  0.40985016  1
  H  H373  1  0.74128333  0.14164692  0.13597749  1
  C  C374  1  0.52950901  0.07375691  0.18822763  1
  C  C375  1  0.52061019  0.11528679  0.11142620  1
  H  H376  1  0.69600845  0.23290986  0.38994371  1
  C  C377  1  0.56833858  0.24116435  0.08142074  1
  H  H378  1  0.56841176  0.01621960  0.10784317  1
  C  C379  1  0.70215954  0.14572745  0.45547272  1
  Cu  Cu380  1  0.54380300  0.21387458  0.45735587  1
  H  H381  1  0.63234658  0.15285803  0.44447040  1
  O  O382  1  0.63827169  0.24121345  0.26347064  1
  H  H383  1  0.56593711  0.24072627  0.18590005  1
  C  C384  1  0.69604630  0.23158273  0.49040502  1
  O  O385  1  0.59794466  0.24289081  0.43581194  1
  C  C386  1  0.56803357  0.19342327  0.02134642  1
  C  C387  1  0.50048165  0.33465255  0.31269344  1
  O  O388  1  0.50752814  0.25393581  0.38465758  1
  C  C389  1  0.58134561  0.28439437  0.01974592  1
  C  C390  1  0.50630487  0.39861720  0.11595538  1
  C  C391  1  0.53632058  0.47664065  0.06594340  1
  C  C392  1  0.50221984  0.44441889  0.03383635  1
  O  O393  1  0.71575594  0.38735070  0.01272025  1
  H  H394  1  0.66775722  0.40886343  0.16979894  1
  H  H395  1  0.68108651  0.45260967  0.35037079  1
  C  C396  1  0.74077885  0.42599291  0.03059629  1
  C  C397  1  0.61643054  0.32100376  0.32938881  1
  H  H398  1  0.58957135  0.31652549  0.06900569  1
  C  C399  1  0.61566798  0.47683935  0.33628320  1
  H  H400  1  0.66080755  0.31704493  0.18635291  1
  C  C401  1  0.65917530  0.48389261  0.35980441  1
  C  C402  1  0.64358967  0.39341936  0.23432105  1
  C  C403  1  0.61820230  0.26415367  0.33997888  1
  H  H404  1  0.56255761  0.46413770  0.12589384  1
  H  H405  1  0.56059628  0.42052450  0.44162867  1
  H  H406  1  0.51335846  0.27452975  0.18618125  1
  C  C407  1  0.58499410  0.39671087  0.39046770  1
  C  C408  1  0.51044204  0.31436008  0.19897264  1
  C  C409  1  0.61489705  0.42123638  0.31024879  1
  O  O410  1  0.72545887  0.46661490  0.04452533  1
  C  C411  1  0.64268031  0.34215491  0.24076552  1
  C  C412  1  0.51365181  0.34727656  0.09705806  1
  C  C413  1  0.58635131  0.34486755  0.40574683  1
  H  H414  1  0.74107753  0.45949091  0.48348346  1
  H  H415  1  0.56666624  0.32541468  0.47491725  1
  H  H416  1  0.51753721  0.33460529  0.00449004  1
  C  C417  1  0.60971481  0.04485879  0.88756838  1
  C  C418  1  0.56283997  0.04242885  0.87852895  1
  C  C419  1  0.63314285  0.07870671  0.81187742  1
  C  C420  1  0.56741520  0.10219490  0.70626936  1
  C  C421  1  0.54465291  0.06666092  0.77848691  1
  C  C422  1  0.69709252  0.18320303  0.68221486  1
  C  C423  1  0.61273752  0.10978370  0.72634963  1
  H  H424  1  0.66802040  0.07387681  0.82790514  1
  C  C425  1  0.54508951  0.13081189  0.61367596  1
  H  H426  1  0.62906945  0.13901435  0.67803960  1
  H  H427  1  0.69907716  0.14781235  0.73324652  1
  C  C428  1  0.69563742  0.22876322  0.74363133  1
  H  H429  1  0.69197251  0.23038969  0.83994785  1
  C  C430  1  0.57430713  0.19174246  0.89252503  1
  H  H431  1  0.56909563  0.15517491  0.84692553  1
  O  O432  1  0.56610291  0.16502098  0.55327476  1
  O  O433  1  0.74867439  0.18155835  0.91462099  1
  C  C434  1  0.73824477  0.00884298  0.87117272  1
  C  C435  1  0.69944705  0.18586150  0.55445427  1
  O  O436  1  0.50472104  0.02826785  0.50065553  1
  H  H437  1  0.56297143  0.00231798  0.60108674  1
  O  O438  1  0.69420348  0.00504043  0.85379370  1
  H  H439  1  0.74203965  0.03269739  0.95528947  1
  H  H440  1  0.54314852  0.01780780  0.93984485  1
  C  C441  1  0.58182240  0.23673133  0.82375195  1
  C  C442  1  0.62811011  0.01088761  0.98150706  1
  O  O443  1  0.50669818  0.12040207  0.59118336  1
  H  H444  1  0.58798268  0.23604915  0.72763276  1
  H  H445  1  0.50871382  0.06011858  0.76731958  1
  O  O446  1  0.60307286  0.44288915  0.62786827  1
  Cu  Cu447  1  0.63031870  0.38688793  0.67608558  1
  O  O448  1  0.68371919  0.35946479  0.68493036  1
  O  O449  1  0.68810371  0.32230564  0.86288461  1
  C  C450  1  0.69161909  0.27609544  0.54789145  1
  C  C451  1  0.59421916  0.32959782  0.82891401  1
  C  C452  1  0.58516292  0.28108058  0.88942851  1
  Cu  Cu453  1  0.66134581  0.37632165  0.94810235  1
  C  C454  1  0.58762685  0.48013947  0.69185626  1
  O  O455  1  0.60583986  0.36631273  0.89654584  1
  C  C456  1  0.69320897  0.27424132  0.67729374  1
  O  O457  1  0.55148565  0.47929172  0.73371788  1
  C  C458  1  0.68791669  0.31942129  0.74960281  1
  O  O459  1  0.59294525  0.33653426  0.71588516  1
  H  H460  1  0.68384953  0.31171070  0.50714299  1
  C  C461  1  0.70941953  0.57096670  0.14117124  1
  H  H462  1  0.68495798  0.56255055  0.21370617  1
  C  C463  1  0.67458747  0.53127468  0.40210018  1
  H  H464  1  0.60203956  0.63962349  0.25535283  1
  C  C465  1  0.58801384  0.64756462  0.35211237  1
  C  C466  1  0.60210589  0.56146479  0.37407794  1
  C  C467  1  0.72063915  0.53660759  0.43658654  1
  C  C468  1  0.64581605  0.57337802  0.40221714  1
  H  H469  1  0.71718815  0.61444969  0.38906595  1
  C  C470  1  0.57725542  0.60497210  0.42356742  1
  H  H471  1  0.65417516  0.61020363  0.43561856  1
  C  C472  1  0.58239593  0.69336114  0.40046711  1
  C  C473  1  0.55497190  0.69670275  0.09696477  1
  H  H474  1  0.71212239  0.66638543  0.15510500  1
  C  C475  1  0.58320836  0.65318126  0.07331036  1
  C  C476  1  0.55416133  0.61283983  0.06123209  1
  C  C477  1  0.62941072  0.65270810  0.07207842  1
  O  O478  1  0.65015250  0.69474130  0.08727233  1
  C  C479  1  0.73760984  0.58474088  0.42696830  1
  C  C480  1  0.51477183  0.55387355  0.31972285  1
  H  H481  1  0.58774249  0.73012673  0.34852788  1
  C  C482  1  0.64472297  0.60393871  0.04047102  1
  C  C483  1  0.58411570  0.51529621  0.33865631  1
  C  C484  1  0.57001578  0.56574861  0.03079669  1
  H  H485  1  0.53880871  0.57707261  0.26323757  1
  C  C486  1  0.61732183  0.56196128  0.02772594  1
  H  H487  1  0.51868491  0.61671870  0.06362175  1
  C  C488  1  0.69687571  0.68928269  0.08481035  1
  C  C489  1  0.69295163  0.59160627  0.03039682  1
  H  H490  1  0.71192407  0.72791445  0.08777651  1
  C  C491  1  0.55847742  0.73929174  0.01756799  1
  H  H492  1  0.51157116  0.56996080  0.41380223  1
  O  O493  1  0.54211204  0.50780640  0.31821484  1
  H  H494  1  0.51769215  0.65431629  0.23005459  1
  H  H495  1  0.63225885  0.52543420  0.01073399  1
  C  C496  1  0.51737846  0.68766685  0.17225034  1
  C  C497  1  0.53356568  0.52605807  0.01823216  1
  C  C498  1  0.60025183  0.99905787  0.08747452  1
  H  H499  1  0.66093170  0.78336256  0.05921171  1
  H  H500  1  0.67067280  0.91336734  0.23086720  1
  C  C501  1  0.62246922  0.96456500  0.15466468  1
  C  C502  1  0.61441901  0.83242272  0.29960310  1
  H  H503  1  0.50710045  0.95411730  0.06510367  1
  C  C504  1  0.65252023  0.80677841  0.37078346  1
  H  H505  1  0.54204400  0.98337766  0.28293261  1
  C  C506  1  0.65788862  0.93700662  0.15492973  1
  C  C507  1  0.61143168  0.83293255  0.17764409  1
  C  C508  1  0.50748765  0.99031745  0.25678982  1
  C  C509  1  0.52565972  0.77562902  0.01654543  1
  O  O510  1  0.55450901  0.89874336  0.06416046  1
  O  O511  1  0.68963679  0.79726689  0.35672076  1
  C  C512  1  0.68099133  0.95300592  0.04028160  1
  H  H513  1  0.58638451  0.84542087  0.35552371  1
  C  C514  1  0.60730736  0.83731555  0.04883945  1
  H  H515  1  0.64508660  0.79097248  0.46498747  1
  C  C516  1  0.64920358  0.62163401  0.71685745  1
  C  C517  1  0.66803532  0.58237230  0.65294557  1
  C  C518  1  0.67134734  0.67024177  0.74169159  1
  C  C519  1  0.61040364  0.61234276  0.78800373  1
  H  H520  1  0.60195715  0.63770539  0.85702642  1
  C  C521  1  0.58930380  0.56669186  0.77855806  1
  H  H522  1  0.56014298  0.56022783  0.83076941  1
  C  C523  1  0.65009526  0.53609027  0.64817654  1
  C  C524  1  0.61016665  0.52890834  0.70787422  1
  H  H525  1  0.61232228  0.70632147  0.77191748  1
  C  C526  1  0.64675517  0.71118631  0.78012696  1
  H  H527  1  0.70381631  0.60697511  0.83325526  1
  C  C528  1  0.71796014  0.67173752  0.74280543  1
  H  H529  1  0.53649235  0.65876163  0.67858147  1
  C  C530  1  0.71876964  0.59712518  0.92167849  1
  H  H531  1  0.69773224  0.58815619  0.60111298  1
  C  C532  1  0.55214605  0.65350295  0.58850017  1
  H  H533  1  0.66306898  0.50543110  0.59697082  1
  H  H534  1  0.55133479  0.57235999  0.60035948  1
  C  C535  1  0.73397920  0.71646649  0.79392776  1
  C  C536  1  0.55900272  0.60719487  0.54456358  1
  H  H537  1  0.70357978  0.67230588  0.99149023  1
  C  C538  1  0.56354679  0.69594920  0.51833905  1
  H  H539  1  0.58742568  0.74603802  0.96102944  1
  C  C540  1  0.55745574  0.74560024  0.57096948  1
  O  O541  1  0.74301846  0.63476460  0.70021162  1
  H  H542  1  0.73024762  0.67644655  0.51668563  1
  O  O543  1  0.53732550  0.75343735  0.67803670  1
  C  C544  1  0.66959582  0.99207230  0.96271518  1
  C  C545  1  0.71585294  0.90591114  0.87274123  1
  H  H546  1  0.60581084  0.94711542  0.75127957  1
  H  H547  1  0.53398440  0.94644913  0.92193968  1
  C  C548  1  0.57945200  0.86365416  0.86159446  1
  C  C549  1  0.50848844  0.87992644  0.73443042  1
  C  C550  1  0.60663154  0.82717973  0.80840164  1
  C  C551  1  0.57144937  0.93826637  0.72684903  1
  H  H552  1  0.72497090  0.79248657  0.87194001  1
  C  C553  1  0.66607388  0.75654567  0.81886922  1
  C  C554  1  0.71141885  0.75775376  0.83458049  1
  H  H555  1  0.60327356  0.81718516  0.71296265  1
  C  C556  1  0.50422796  0.95643015  0.62283283  1
  H  H557  1  0.52678254  0.81220219  0.96539363  1
  O  O558  1  0.57175082  0.78171140  0.51298547  1
  C  C559  1  0.54894264  0.96869127  0.64272161  1
  C  C560  1  0.55186804  0.89138572  0.76900652  1
  H  H561  1  0.68714335  0.91049858  0.81877782  1
  C  C562  1  0.63710356  0.79943591  0.87167512  1
  C  C563  1  0.71972748  0.92447756  0.99628702  1
  C  C564  1  0.51955834  0.92462676  0.99759802  1
  C  C565  1  0.57852858  0.87205213  0.98993590  1
  C  C566  1  0.63906870  0.80589304  0.99834102  1
  C  C567  1  0.79016474  0.03438086  0.24110158  1
  C  C568  1  0.82176231  0.02828770  0.15106070  1
  H  H569  1  0.82142972  0.05145138  0.06880271  1
  O  O570  1  0.77817808  0.12145046  0.42764862  1
  H  H571  1  0.78771804  0.00856741  0.32080396  1
  C  C572  1  0.76352343  0.10871710  0.12125918  1
  C  C573  1  0.75994117  0.07272677  0.21487390  1
  O  O574  1  0.78981394  0.11721412  0.03482449  1
  C  C575  1  0.75047403  0.49816818  0.46956832  1
  H  H576  1  0.77901178  0.34287963  0.03199062  1
  C  C577  1  0.84802724  0.36322567  0.02822042  1
  C  C578  1  0.81787237  0.46148640  0.04679609  1
  C  C579  1  0.85276761  0.40302370  0.34762720  1
  C  C580  1  0.80438091  0.37325797  0.02559111  1
  H  H581  1  0.85767883  0.32412075  0.02579385  1
  C  C582  1  0.82299854  0.46777461  0.48486357  1
  O  O583  1  0.99355715  0.40466055  0.33293177  1
  O  O584  1  0.98514281  0.30159642  0.23483621  1
  C  C585  1  0.82635842  0.44560580  0.36662305  1
  H  H586  1  0.84992196  0.38362746  0.25771616  1
  H  H587  1  0.80389900  0.45730790  0.29207192  1
  C  C588  1  0.87514575  0.38596104  0.45756007  1
  C  C589  1  0.90349576  0.34351237  0.43984931  1
  Cu  Cu590  1  0.95449556  0.36318851  0.23984816  1
  C  C591  1  0.78852953  0.42132509  0.03223539  1
  O  O592  1  0.95529030  0.47458418  0.02676749  1
  O  O593  1  0.90903143  0.33077458  0.32514067  1
  H  H594  1  0.88603650  0.48362833  0.03429737  1
  C  C595  1  0.86094780  0.45233935  0.03410689  1
  C  C596  1  0.87741830  0.40325809  0.01311895  1
  C  C597  1  0.81996065  0.16556804  0.85828417  1
  C  C598  1  0.89621103  0.14930696  0.82434819  1
  C  C599  1  0.97549347  0.18917259  0.67181517  1
  C  C600  1  0.89618858  0.19080677  0.74741891  1
  C  C601  1  0.81900224  0.20520298  0.76472737  1
  C  C602  1  0.93952371  0.21456682  0.72283693  1
  H  H603  1  0.92567989  0.12768838  0.84841535  1
  C  C604  1  0.85613209  0.13655165  0.88130214  1
  C  C605  1  0.85692556  0.21554070  0.70556859  1
  O  O606  1  0.97078187  0.14231128  0.63010961  1
  H  H607  1  0.78880737  0.22796312  0.74061787  1
  C  C608  1  0.78071508  0.15969043  0.92751720  1
  H  H609  1  0.85355694  0.10645817  0.94950558  1
  O  O610  1  0.91511110  0.00870643  0.83561300  1
  H  H611  1  0.82305993  0.14798251  0.57466233  1
  C  C612  1  0.79044553  0.15302962  0.53705069  1
  H  H613  1  0.76551648  0.14365531  0.60431475  1
  H  H614  1  0.75443853  0.03111731  0.79846021  1
  H  H615  1  0.85611542  0.24422202  0.62881522  1
  H  H616  1  0.78794880  0.19272410  0.51534527  1
  H  H617  1  0.86831375  0.01803413  0.99056891  1
  C  C618  1  0.97280935  0.28963454  0.79499275  1
  C  C619  1  0.86947360  0.40435999  0.57679616  1
  H  H620  1  0.84346684  0.46635784  0.68439520  1
  C  C621  1  0.96720855  0.33652160  0.86771983  1
  C  C622  1  0.93511520  0.26077466  0.77957163  1
  C  C623  1  0.95996092  0.42787387  0.99000295  1
  H  H624  1  0.88580231  0.38411484  0.65174426  1
  H  H625  1  0.90368643  0.26950989  0.81668628  1
  O  O626  1  0.92504730  0.32304020  0.51998632  1
  C  C627  1  0.92441983  0.39457510  0.98064844  1
  C  C628  1  0.84520775  0.44821889  0.59108376  1
  H  H629  1  0.89679834  0.32958231  0.90730437  1
  C  C630  1  0.92635235  0.34989792  0.91590860  1
  Cu  Cu631  1  0.98401209  0.30919875  0.50415636  1
  H  H632  1  0.88791871  0.55319466  0.31379485  1
  H  H633  1  0.76855637  0.54698681  0.22921074  1
  O  O634  1  0.83910245  0.55836968  0.19053971  1
  C  C635  1  0.78108520  0.59381322  0.45701728  1
  C  C636  1  0.87653980  0.56016337  0.22397838  1
  C  C637  1  0.83152245  0.65963616  0.38118706  1
  C  C638  1  0.84351610  0.70942763  0.37757607  1
  H  H639  1  0.85330703  0.63029598  0.34832149  1
  C  C640  1  0.75264849  0.56113300  0.14349382  1
  C  C641  1  0.78965588  0.64733291  0.43406705  1
  C  C642  1  0.81454006  0.55973512  0.48975890  1
  C  C643  1  0.79307124  0.51366232  0.48823617  1
  C  C644  1  0.76034794  0.68691849  0.46467008  1
  H  H645  1  0.98738547  0.54965810  0.04143315  1
  C  C646  1  0.90769788  0.57240301  0.13900223  1
  C  C647  1  0.78086140  0.57346263  0.04634709  1
  H  H648  1  0.85408067  0.71682124  0.06113021  1
  H  H649  1  0.80623505  0.50131859  0.05099878  1
  H  H650  1  0.87723391  0.71738048  0.35108413  1
  C  C651  1  0.82466726  0.57290928  0.06083688  1
  C  C652  1  0.94059575  0.60401454  0.10355005  1
  Cu  Cu653  1  0.93815105  0.70402185  0.08196167  1
  O  O654  1  0.95802160  0.64189326  0.13894319  1
  C  C655  1  0.99207250  0.50909283  0.02358871  1
  C  C656  1  0.81330602  0.74669226  0.41225828  1
  C  C657  1  0.77120011  0.73687468  0.45718395  1
  H  H658  1  0.88580805  0.50619702  0.46464172  1
  C  C659  1  0.90384333  0.58561819  0.01702377  1
  O  O660  1  0.91451848  0.96767797  0.02750968  1
  C  C661  1  0.85862924  0.95828612  0.26494614  1
  O  O662  1  0.86760802  0.80713999  0.37159514  1
  C  C663  1  0.79594545  0.90995728  0.01591120  1
  H  H664  1  0.98543483  0.93471220  0.08323844  1
  O  O665  1  0.89303063  0.93063865  0.26718962  1
  C  C666  1  0.83088558  0.79707139  0.41235224  1
  H  H667  1  0.75096505  0.93095754  0.17709285  1
  C  C668  1  0.75739451  0.92434633  0.07371688  1
  C  C669  1  0.98836178  0.94442628  0.41011281  1
  Cu  Cu670  1  0.81981974  0.89660656  0.41649141  1
  H  H671  1  0.95550805  0.95599048  0.39218551  1
  H  H672  1  0.82443548  0.90960037  0.07050169  1
  Cu  Cu673  1  0.88412916  0.86929935  0.30617297  1
  O  O674  1  0.83412906  0.95917903  0.35475089  1
  C  C675  1  0.85348457  0.99119484  0.16057835  1
  O  O676  1  0.91946781  0.76358101  0.03667835  1
  H  H677  1  0.75060044  0.76770396  0.48462443  1
  O  O678  1  0.80524377  0.83222574  0.44557404  1
  C  C679  1  0.88228776  0.99277428  0.06382703  1
  C  C680  1  0.79037569  0.64245211  0.69249273  1
  H  H681  1  0.80466373  0.65245803  0.78336310  1
  H  H682  1  0.79660514  0.67423266  0.63669871  1
  H  H683  1  0.80314205  0.60794683  0.65052102  1
  C  C684  1  0.80018712  0.71193139  0.93443835  1
  O  O685  1  0.84997802  0.58146874  0.98044910  1
  H  H686  1  0.78237083  0.58918112  0.85121288  1
  H  H687  1  0.91505164  0.56096993  0.93854244  1
  H  H688  1  0.91960445  0.55298183  0.53683482  1
  H  H689  1  0.88175947  0.51894995  0.62035798  1
  O  O690  1  0.85664200  0.57368379  0.50432464  1
  C  C691  1  0.76210070  0.58577355  0.93152890  1
  C  C692  1  0.88738343  0.53695222  0.53069044  1
  C  C693  1  0.78132338  0.73006453  0.82087180  1
  C  C694  1  0.84079141  0.72849886  0.97333800  1
  H  H695  1  0.77949945  0.68840597  0.99242037  1
  H  H696  1  0.98253141  0.99237030  0.70253774  1
  C  C697  1  0.99613517  0.91422373  0.51331247  1
  C  C698  1  0.93472746  0.98330004  0.90524225  1
  H  H699  1  0.87323688  0.78989780  0.70961732  1
  O  O700  1  0.86880201  0.88126137  0.88296689  1
  C  C701  1  0.85024351  0.76953599  0.76516350  1
  O  O702  1  0.83056487  0.86811957  0.71776537  1
  C  C703  1  0.86391372  0.75713773  0.88765193  1
  C  C704  1  0.95849076  0.89167379  0.57671026  1
  O  O705  1  0.96166193  0.86736237  0.67448573  1
  C  C706  1  0.80845184  0.75385466  0.73780953  1
  Cu  Cu707  1  0.87195601  0.88574210  0.60346509  1
  Cu  Cu708  1  0.92008956  0.86864296  0.79098440  1
  O  O709  1  0.92784688  0.80478682  0.86194551  1
  C  C710  1  0.90564768  0.77694567  0.92865757  1
  H  H711  1  0.79510274  0.75874406  0.64737881  1
  C  C712  1  0.79299880  0.89200415  0.89219270  1
  C  C713  1  0.97840764  0.96232606  0.89434030  1
  C  C714  1  0.83224431  0.87798802  0.83154995  1
  O  O715  1  0.92306059  0.89715522  0.52191080  1
  H  H716  1  0.75791699  0.97362248  0.88280071  1
  C  C717  1  0.75359865  0.88570116  0.82468426  1
  H  H718  1  0.75158722  0.87089658  0.73150894  1
  C  C719  1  0.99952945  0.93781464  0.99242648  1
