# generated using pymatgen
data_CuH13C21O5
_symmetry_space_group_name_H-M   'P 1'
_cell_length_a   32.57388802
_cell_length_b   27.78184080
_cell_length_c   10.32146180
_cell_angle_alpha   90.00000000
_cell_angle_beta   90.00000000
_cell_angle_gamma   90.00000000
_symmetry_Int_Tables_number   1
_chemical_formula_structural   CuH13C21O5
_chemical_formula_sum   'Cu18 H234 C378 O90'
_cell_volume   9340.53660893
_cell_formula_units_Z   18
loop_
 _symmetry_equiv_pos_site_id
 _symmetry_equiv_pos_as_xyz
  1  'x, y, z'
loop_
 _atom_site_type_symbol
 _atom_site_label
 _atom_site_symmetry_multiplicity
 _atom_site_fract_x
 _atom_site_fract_y
 _atom_site_fract_z
 _atom_site_occupancy
  C  C0  1  0.02872232  0.11684580  0.35914603  1
  O  O1  1  0.19109411  0.16952580  0.18178124  1
  C  C2  1  0.22479012  0.19039255  0.18141488  1
  C  C3  1  0.03625104  0.21642930  0.36810666  1
  Cu  Cu4  1  0.17139353  0.11625884  0.08380412  1
  H  H5  1  0.03158015  0.07838263  0.34820413  1
  H  H6  1  0.23508688  0.19496209  0.28311393  1
  C  C7  1  0.05663197  0.13969327  0.44830631  1
  C  C8  1  0.06137000  0.19006195  0.44559320  1
  H  H9  1  0.22474303  0.01649102  0.15904204  1
  C  C10  1  0.24315969  0.02440170  0.24635923  1
  H  H11  1  0.24282385  0.10160733  0.22350278  1
  O  O12  1  0.14379882  0.06904808  0.01742092  1
  C  C13  1  0.00159395  0.19546223  0.29952150  1
  C  C14  1  0.00055393  0.14272552  0.28426832  1
  H  H15  1  0.00451363  0.35149640  0.39102658  1
  C  C16  1  0.13730663  0.45398263  0.06132744  1
  C  C17  1  0.18685448  0.47404802  0.34807937  1
  H  H18  1  0.04222152  0.25562453  0.36094797  1
  C  C19  1  0.02202234  0.44153873  0.44664877  1
  H  H20  1  0.18217789  0.43608919  0.36560619  1
  C  C21  1  0.08267803  0.33808860  0.01813564  1
  O  O22  1  0.06294711  0.30798255  0.08489928  1
  C  C23  1  0.16365770  0.49968795  0.26369378  1
  C  C24  1  0.13568106  0.46139973  0.20048270  1
  C  C25  1  0.04230738  0.48515336  0.40941034  1
  C  C26  1  0.11487011  0.42601147  0.27283050  1
  H  H27  1  0.15481144  0.48185055  0.00652754  1
  C  C28  1  0.10089842  0.37987437  0.08146699  1
  C  C29  1  0.22258701  0.49685572  0.40071539  1
  Cu  Cu30  1  0.01159187  0.28825157  0.03229750  1
  C  C31  1  0.09530400  0.38587726  0.21633070  1
  C  C32  1  0.12371125  0.41259953  0.00163231  1
  H  H33  1  0.11487269  0.42715517  0.37871234  1
  H  H34  1  0.07548523  0.35997253  0.26376972  1
  C  C35  1  0.24963007  0.46655287  0.48898650  1
  H  H36  1  0.24731449  0.42141884  0.04251717  1
  C  C37  1  0.07776729  0.49917808  0.47092202  1
  C  C38  1  0.16424863  0.23338674  0.78005891  1
  O  O39  1  0.14905715  0.22701597  0.89104232  1
  O  O40  1  0.19906883  0.11610697  0.77672043  1
  C  C41  1  0.21197975  0.08691361  0.85777226  1
  Cu  Cu42  1  0.14624919  0.13179817  0.71328890  1
  O  O43  1  0.15759770  0.20187713  0.69224704  1
  C  C44  1  0.22832715  0.03926813  0.81784675  1
  H  H45  1  0.20662723  0.04928883  0.62426090  1
  O  O46  1  0.09702549  0.13828899  0.64075593  1
  C  C47  1  0.08038454  0.03757880  0.94116584  1
  Cu  Cu48  1  0.12411134  0.17091544  0.93048890  1
  C  C49  1  0.04255985  0.04816077  0.88480698  1
  C  C50  1  0.22041471  0.02288103  0.69136207  1
  H  H51  1  0.19987560  0.24939333  0.55194058  1
  H  H52  1  0.03447358  0.08534659  0.86713092  1
  C  C53  1  0.07922693  0.11075060  0.54876196  1
  O  O54  1  0.21626919  0.09808525  0.97654204  1
  C  C55  1  0.10727545  0.07742419  0.98031679  1
  O  O56  1  0.09388463  0.11947858  0.99108421  1
  O  O57  1  0.03048483  0.23939581  0.74996520  1
  C  C58  1  0.01771552  0.00928007  0.84712276  1
  O  O59  1  0.08082376  0.06812993  0.55019115  1
  H  H60  1  0.08442094  0.20424863  0.50465755  1
  H  H61  1  0.00443347  0.21533906  0.56769628  1
  H  H62  1  0.20009704  0.41867935  0.57312127  1
  C  C63  1  0.22395529  0.32345218  0.59617679  1
  H  H64  1  0.21699924  0.38109238  0.89556211  1
  C  C65  1  0.19015553  0.31464961  0.84386891  1
  O  O66  1  0.14687380  0.45550757  0.70548521  1
  H  H67  1  0.07997703  0.40274436  0.70520434  1
  Cu  Cu68  1  0.05997439  0.29001602  0.79784376  1
  H  H69  1  0.12865688  0.40879809  0.89578339  1
  C  C70  1  0.23356744  0.42660646  0.56353442  1
  H  H71  1  0.01677631  0.37983999  0.59284495  1
  C  C72  1  0.21191848  0.35539700  0.81841239  1
  H  H73  1  0.17705870  0.30996339  0.94236958  1
  C  C74  1  0.12921923  0.48234094  0.63294339  1
  C  C75  1  0.18635994  0.27780182  0.74888191  1
  C  C76  1  0.07016878  0.42466778  0.61905157  1
  O  O77  1  0.08722937  0.33776873  0.89598984  1
  C  C78  1  0.08988347  0.46777073  0.56992513  1
  C  C79  1  0.20421776  0.28031173  0.62189421  1
  C  C80  1  0.03394534  0.41331540  0.55745855  1
  O  O81  1  0.01341039  0.33395355  0.74967725  1
  C  C82  1  0.23055202  0.35989598  0.69241699  1
  H  H83  1  0.23854725  0.33047690  0.50095412  1
  C  C84  1  0.19887105  0.57251066  0.30694276  1
  C  C85  1  0.16556912  0.55065750  0.24174087  1
  O  O86  1  0.13758016  0.57393208  0.17654830  1
  C  C87  1  0.21348668  0.62334991  0.30303727  1
  C  C88  1  0.21355153  0.70152047  0.18921340  1
  C  C89  1  0.20044066  0.65433880  0.19902484  1
  H  H90  1  0.18000872  0.64222040  0.12277070  1
  H  H91  1  0.20114512  0.72556738  0.10909545  1
  C  C92  1  0.22833881  0.54651203  0.37881452  1
  C  C93  1  0.10187876  0.54749240  0.11706693  1
  C  C94  1  0.23729012  0.72057781  0.29274945  1
  C  C95  1  0.23796934  0.64519890  0.40578421  1
  H  H96  1  0.10898455  0.52280367  0.03254088  1
  H  H97  1  0.07634394  0.57160981  0.08153694  1
  H  H98  1  0.09016947  0.52641972  0.20369265  1
  H  H99  1  0.09707895  0.52849484  0.43521999  1
  H  H100  1  0.03024022  0.50683333  0.32852419  1
  H  H101  1  0.24528237  0.62673454  0.49664878  1
  O  O102  1  0.24714897  0.50415100  0.08763863  1
  C  C103  1  0.24719084  0.69210455  0.40372681  1
  C  C104  1  0.24847001  0.93609525  0.29811951  1
  O  O105  1  0.24052928  0.79100062  0.17474602  1
  Cu  Cu106  1  0.24098079  0.85617898  0.16217294  1
  O  O107  1  0.23497164  0.92490374  0.18620632  1
  H  H108  1  0.03065542  0.88822209  0.04635160  1
  C  C109  1  0.20045647  0.62192950  0.84113465  1
  O  O110  1  0.17877089  0.59811745  0.76539325  1
  C  C111  1  0.20150183  0.69298831  0.70078358  1
  Cu  Cu112  1  0.19497785  0.54755691  0.64424971  1
  H  H113  1  0.18024411  0.67196768  0.64392028  1
  C  C114  1  0.21382032  0.67120969  0.81834598  1
  O  O115  1  0.14472352  0.52649020  0.60618512  1
  O  O116  1  0.24625327  0.56859789  0.65343620  1
  C  C117  1  0.23834035  0.69874999  0.90178530  1
  O  O118  1  0.21667429  0.60288756  0.94378956  1
  C  C119  1  0.21281878  0.73893914  0.66367983  1
  H  H120  1  0.24732149  0.68079427  0.99515664  1
  Cu  Cu121  1  0.23641866  0.54632703  0.96373261  1
  H  H122  1  0.00421616  0.91618429  0.52187201  1
  C  C123  1  0.00375765  0.92054051  0.85786159  1
  H  H124  1  0.20287031  0.75270671  0.56859799  1
  H  H125  1  0.13318040  0.98474323  0.95177556  1
  C  C126  1  0.23816394  0.76496441  0.75053891  1
  H  H127  1  0.08841345  0.91462991  0.91753688  1
  H  H128  1  0.20365646  0.92137677  0.92040551  1
  C  C129  1  0.09917090  0.99021548  0.94163228  1
  H  H130  1  0.18409100  0.92444845  0.76368235  1
  O  O131  1  0.20389613  0.85378064  0.81094102  1
  C  C132  1  0.03281172  0.96170431  0.85875064  1
  H  H133  1  0.15606581  0.89765607  0.89283497  1
  C  C134  1  0.07482159  0.95219401  0.90916520  1
  C  C135  1  0.18691959  0.89915237  0.84615776  1
  C  C136  1  0.22975834  0.97561077  0.65155889  1
  C  C137  1  0.23928080  0.85758767  0.74713173  1
  H  H138  1  0.22182105  0.96066364  0.55714749  1
  C  C139  1  0.00884757  0.88613826  0.96637981  1
  C  C140  1  0.29796065  0.15243420  0.29877895  1
  C  C141  1  0.29190952  0.12671840  0.41204154  1
  C  C142  1  0.27607525  0.07644782  0.39192218  1
  C  C143  1  0.30633356  0.20275922  0.30103709  1
  C  C144  1  0.30472649  0.22646426  0.42333257  1
  Cu  Cu145  1  0.38772978  0.10745032  0.36291536  1
  H  H146  1  0.29511847  0.13450864  0.20426941  1
  O  O147  1  0.36055088  0.09064583  0.21327849  1
  C  C148  1  0.32921040  0.23083179  0.20009948  1
  C  C149  1  0.36730915  0.04791211  0.17452065  1
  C  C150  1  0.35657927  0.20720269  0.11247665  1
  H  H151  1  0.35840301  0.16764149  0.12490987  1
  O  O152  1  0.37654406  0.03537011  0.06948383  1
  H  H153  1  0.47764380  0.20481748  0.06792059  1
  C  C154  1  0.37368665  0.01022104  0.28437694  1
  C  C155  1  0.38036016  0.23266881  0.02453157  1
  C  C156  1  0.37054372  0.00141042  0.39504852  1
  C  C157  1  0.29030626  0.03998237  0.47924990  1
  H  H158  1  0.39597727  0.13281536  0.05842910  1
  C  C159  1  0.25165303  0.07128335  0.27684843  1
  C  C160  1  0.25101820  0.20424344  0.07790615  1
  H  H161  1  0.38048497  0.02303008  0.49384509  1
  H  H162  1  0.49489265  0.14929442  0.12765725  1
  C  C163  1  0.28223247  0.49974579  0.14565213  1
  C  C164  1  0.38043642  0.39732889  0.47228130  1
  C  C165  1  0.41654181  0.40377543  0.40460363  1
  H  H166  1  0.30794620  0.26648445  0.43167673  1
  C  C167  1  0.29155953  0.46685795  0.46285800  1
  H  H168  1  0.45056666  0.26859568  0.11052678  1
  H  H169  1  0.39684149  0.26423698  0.29541918  1
  H  H170  1  0.28032899  0.33944281  0.01183711  1
  H  H171  1  0.30778364  0.48760145  0.38240503  1
  C  C172  1  0.42986287  0.27624621  0.31095181  1
  C  C173  1  0.33869240  0.43951022  0.19819988  1
  C  C174  1  0.29646345  0.36794988  0.05923104  1
  C  C175  1  0.30171796  0.44897691  0.13925510  1
  C  C176  1  0.33454238  0.35815272  0.11541772  1
  C  C177  1  0.32533986  0.28153563  0.18966239  1
  O  O178  1  0.49060769  0.41539175  0.25677679  1
  H  H179  1  0.38351650  0.38134004  0.24333660  1
  H  H180  1  0.30697126  0.30353039  0.25730568  1
  C  C181  1  0.28000865  0.41451840  0.07005293  1
  C  C182  1  0.37788233  0.48937161  0.48534068  1
  O  O183  1  0.48395059  0.49436302  0.25491150  1
  C  C184  1  0.44479169  0.28713287  0.43624587  1
  H  H185  1  0.35550744  0.46877854  0.24542589  1
  C  C186  1  0.34855084  0.30420299  0.09816231  1
  C  C187  1  0.41450834  0.49235552  0.41062785  1
  C  C188  1  0.35608810  0.39316636  0.18685980  1
  C  C189  1  0.37688351  0.28366038  0.00713775  1
  C  C190  1  0.48648110  0.30009573  0.45969538  1
  C  C191  1  0.45835355  0.27576665  0.21342743  1
  H  H192  1  0.43348258  0.37031769  0.37271492  1
  C  C193  1  0.43291377  0.44975172  0.37339088  1
  C  C194  1  0.47093097  0.44956663  0.28758747  1
  H  H195  1  0.36733822  0.36097739  0.48547942  1
  C  C196  1  0.31231639  0.13348099  0.76420976  1
  C  C197  1  0.40029450  0.11150855  0.86174172  1
  C  C198  1  0.42046418  0.20967296  0.81725423  1
  C  C199  1  0.28610019  0.22383399  0.74832076  1
  H  H200  1  0.32200793  0.10556788  0.83373397  1
  C  C201  1  0.40909649  0.12730151  0.73403936  1
  C  C202  1  0.42073611  0.17582363  0.71602817  1
  H  H203  1  0.33993938  0.15773599  0.75475478  1
  C  C204  1  0.29699615  0.23080022  0.87623208  1
  H  H205  1  0.28570318  0.15188833  0.80901375  1
  H  H206  1  0.39157698  0.07113656  0.88196750  1
  O  O207  1  0.29723817  0.11611940  0.64021575  1
  C  C208  1  0.31662141  0.22994462  0.64924595  1
  C  C209  1  0.40519418  0.09778264  0.61430107  1
  O  O210  1  0.39544662  0.05603292  0.61591131  1
  H  H211  1  0.42831752  0.18905039  0.61597447  1
  C  C212  1  0.39954453  0.19670979  0.93496311  1
  C  C213  1  0.40103444  0.14522893  0.95914354  1
  H  H214  1  0.25601396  0.20717227  0.73265299  1
  C  C215  1  0.27052944  0.21576646  0.98145315  1
  H  H216  1  0.30948660  0.04638567  0.56536588  1
  C  C217  1  0.30570274  0.19594967  0.53172522  1
  C  C218  1  0.29789649  0.14723807  0.53699372  1
  O  O219  1  0.41248727  0.12102019  0.50889828  1
  H  H220  1  0.43264450  0.24619483  0.80653441  1
  C  C221  1  0.25300718  0.01255291  0.90252927  1
  H  H222  1  0.32776212  0.24174682  0.90356505  1
  H  H223  1  0.26185465  0.02836890  0.99671542  1
  C  C224  1  0.35145933  0.25539368  0.62741861  1
  O  O225  1  0.37769016  0.25932233  0.53563020  1
  C  C226  1  0.36032871  0.44264183  0.50147294  1
  H  H227  1  0.29395435  0.30033274  0.71194724  1
  O  O228  1  0.49760890  0.49232956  0.98913593  1
  H  H229  1  0.35975193  0.28392284  0.70426169  1
  C  C230  1  0.41806036  0.28744699  0.55207618  1
  H  H231  1  0.49506486  0.31021904  0.55466565  1
  O  O232  1  0.33019598  0.36894436  0.69078802  1
  O  O233  1  0.40016084  0.30694123  0.92500114  1
  C  C234  1  0.26056520  0.39594652  0.63322253  1
  H  H235  1  0.36131181  0.36324975  0.92083527  1
  H  H236  1  0.40844296  0.37504960  0.81853167  1
  H  H237  1  0.28485877  0.34598710  0.83195843  1
  C  C238  1  0.39641416  0.36018403  0.91427208  1
  H  H239  1  0.33139097  0.31183240  0.83642024  1
  C  C240  1  0.30510062  0.39812438  0.62908130  1
  C  C241  1  0.30955513  0.32891183  0.77045852  1
  C  C242  1  0.31605541  0.43459618  0.53830349  1
  O  O243  1  0.42774374  0.30497024  0.65051016  1
  H  H244  1  0.49264666  0.46376786  0.58860173  1
  H  H245  1  0.40966067  0.38426429  0.99921146  1
  C  C246  1  0.42441958  0.69697392  0.40458412  1
  C  C247  1  0.42752794  0.65296141  0.34076122  1
  H  H248  1  0.43736627  0.61795476  0.39265398  1
  C  C249  1  0.41544701  0.65069170  0.20537540  1
  O  O250  1  0.43111021  0.56934190  0.20507521  1
  C  C251  1  0.42219165  0.60616800  0.13661719  1
  Cu  Cu252  1  0.46461438  0.52814424  0.11159078  1
  C  C253  1  0.40173490  0.69286476  0.14332721  1
  H  H254  1  0.42849439  0.52687559  0.37777912  1
  H  H255  1  0.39695613  0.68941552  0.03742308  1
  C  C256  1  0.39567559  0.73657026  0.20892523  1
  O  O257  1  0.29751939  0.53352741  0.19792873  1
  O  O258  1  0.41656960  0.60226133  0.01446071  1
  H  H259  1  0.25599552  0.56669387  0.40922246  1
  C  C260  1  0.40366469  0.73695180  0.34687158  1
  H  H261  1  0.26356540  0.70896424  0.47977549  1
  H  H262  1  0.45685730  0.74891565  0.21741278  1
  H  H263  1  0.43541108  0.70346932  0.49975820  1
  C  C264  1  0.25414257  0.76760580  0.27620411  1
  C  C265  1  0.39208785  0.95777708  0.31939515  1
  H  H266  1  0.48793117  0.75015745  0.36299303  1
  C  C267  1  0.25667180  0.98588410  0.32959795  1
  C  C268  1  0.44969954  0.90958649  0.42103093  1
  O  O269  1  0.46968311  0.81752362  0.32793433  1
  C  C270  1  0.36426236  0.85196682  0.01874861  1
  O  O271  1  0.25678726  0.90473918  0.38269696  1
  H  H272  1  0.40576407  0.85426933  0.18764339  1
  H  H273  1  0.45536640  0.98312661  0.36270675  1
  C  C274  1  0.27874805  0.99327844  0.44459060  1
  C  C275  1  0.40259443  0.85129079  0.08187953  1
  H  H276  1  0.46674892  0.83118695  0.04494304  1
  O  O277  1  0.33340077  0.85789417  0.23246381  1
  C  C278  1  0.43662330  0.83985186  0.00049737  1
  H  H279  1  0.34088764  0.76472935  0.46463106  1
  O  O280  1  0.27766179  0.78754727  0.35839777  1
  O  O281  1  0.29459155  0.85909317  0.06091776  1
  C  C282  1  0.42174667  0.86601914  0.44184011  1
  C  C283  1  0.47968851  0.77176398  0.27357478  1
  C  C284  1  0.49052739  0.90555596  0.48182651  1
  C  C285  1  0.36364461  0.79369041  0.46072589  1
  C  C286  1  0.43364280  0.82299692  0.38481620  1
  C  C287  1  0.43541196  0.95115928  0.35961488  1
  H  H288  1  0.39010484  0.77029284  0.15499833  1
  H  H289  1  0.37298196  0.92641187  0.29290981  1
  C  C290  1  0.40207781  0.78581966  0.40643251  1
  Cu  Cu291  1  0.29058756  0.85547649  0.35729834  1
  C  C292  1  0.32933078  0.85980475  0.10921099  1
  C  C293  1  0.27145314  0.54870807  0.72948565  1
  H  H294  1  0.41669166  0.68072598  0.74085621  1
  C  C295  1  0.38387966  0.55551597  0.80144481  1
  H  H296  1  0.40830350  0.53737695  0.86109483  1
  C  C297  1  0.34428477  0.54164029  0.80845483  1
  C  C298  1  0.31493396  0.56322351  0.72532497  1
  C  C299  1  0.47827339  0.68300898  0.65265388  1
  C  C300  1  0.44036550  0.66090524  0.69249691  1
  C  C301  1  0.39609046  0.59006374  0.70896666  1
  C  C302  1  0.43884089  0.61077552  0.67375359  1
  C  C303  1  0.36767815  0.60903138  0.62208218  1
  C  C304  1  0.32620848  0.59748038  0.63173074  1
  O  O305  1  0.46372282  0.53283345  0.61294170  1
  C  C306  1  0.46955809  0.58067762  0.61908010  1
  Cu  Cu307  1  0.47244321  0.59591579  0.92588925  1
  H  H308  1  0.30424523  0.61267654  0.56088521  1
  C  C309  1  0.48259548  0.73467376  0.68581644  1
  O  O310  1  0.25885631  0.52093438  0.81848613  1
  H  H311  1  0.33526640  0.51436165  0.87869830  1
  H  H312  1  0.42243413  0.74554508  0.76779036  1
  H  H313  1  0.36234191  0.52251122  0.52397734  1
  C  C314  1  0.49794316  0.50267601  0.56463325  1
  O  O315  1  0.49430007  0.65502625  0.97098147  1
  C  C316  1  0.25036395  0.74512507  0.87376790  1
  H  H317  1  0.37898692  0.63403481  0.53837149  1
  C  C318  1  0.42957533  0.83582457  0.86543244  1
  C  C319  1  0.25363037  0.94767326  0.74096131  1
  C  C320  1  0.46159576  0.80962951  0.78273499  1
  H  H321  1  0.38855851  0.82780275  0.70413332  1
  H  H322  1  0.32465450  0.84271231  0.84190776  1
  H  H323  1  0.26997503  0.76371773  0.94225673  1
  H  H324  1  0.29068764  0.95012943  0.92917537  1
  C  C325  1  0.26514353  0.89550287  0.70732595  1
  C  C326  1  0.25852524  0.81258480  0.71302381  1
  C  C327  1  0.49960683  0.83342811  0.76203094  1
  H  H328  1  0.38098494  0.90890734  0.55508684  1
  C  C329  1  0.35594142  0.84432636  0.88617989  1
  H  H330  1  0.32536641  0.92286579  0.64143049  1
  C  C331  1  0.35578083  0.83822215  0.52226463  1
  C  C332  1  0.45327885  0.76229424  0.75276364  1
  C  C333  1  0.30475253  0.89190970  0.65027019  1
  C  C334  1  0.26820528  0.96799942  0.86163392  1
  C  C335  1  0.31727569  0.84539957  0.60301287  1
  C  C336  1  0.38977342  0.83438634  0.80670807  1
  H  H337  1  0.30889227  0.76870110  0.63449941  1
  C  C338  1  0.29438712  0.80398486  0.64529502  1
  C  C339  1  0.38713407  0.87352961  0.51812457  1
  H  H340  1  0.28661227  0.96043810  0.50065141  1
  C  C341  1  0.67615861  0.09753812  0.12957226  1
  H  H342  1  0.70853633  0.08912966  0.10244877  1
  C  C343  1  0.60265624  0.08590045  0.11156160  1
  C  C344  1  0.70515068  0.16755612  0.25878488  1
  C  C345  1  0.66754296  0.13457568  0.22269737  1
  C  C346  1  0.62691189  0.14821504  0.25130226  1
  C  C347  1  0.59394123  0.12547607  0.19221983  1
  H  H348  1  0.55889659  0.13535963  0.21015023  1
  H  H349  1  0.62508760  0.17544139  0.32645553  1
  H  H350  1  0.67452273  0.03757053  0.39717129  1
  C  C351  1  0.69690060  0.21745707  0.26341740  1
  O  O352  1  0.54619643  0.19993930  0.08077100  1
  O  O353  1  0.64347537  0.08517505  0.45709719  1
  C  C354  1  0.64348877  0.07146025  0.08161245  1
  C  C355  1  0.74202803  0.14384989  0.28139711  1
  C  C356  1  0.65517318  0.04317426  0.48750568  1
  O  O357  1  0.53319125  0.06820863  0.06640056  1
  C  C358  1  0.73397915  0.24235138  0.29467865  1
  H  H359  1  0.69173119  0.15255458  0.49449732  1
  H  H360  1  0.74365101  0.10459691  0.26609487  1
  C  C361  1  0.50351195  0.18778089  0.12386325  1
  O  O362  1  0.65891436  0.23704973  0.23778720  1
  H  H363  1  0.50326278  0.20147785  0.22453274  1
  C  C364  1  0.56793916  0.06289823  0.04320840  1
  C  C365  1  0.55721950  0.24635974  0.07453648  1
  H  H366  1  0.64748841  0.04567362  0.01052327  1
  C  C367  1  0.59344571  0.25854450  0.00598210  1
  H  H368  1  0.74269221  0.32803302  0.45434594  1
  Cu  Cu369  1  0.67020768  0.49703669  0.01249942  1
  C  C370  1  0.50236236  0.28304912  0.23394279  1
  C  C371  1  0.72313789  0.43980804  0.13641644  1
  H  H372  1  0.72930467  0.27171890  0.06488191  1
  C  C373  1  0.73827754  0.38194107  0.30494188  1
  O  O374  1  0.70946527  0.44915056  0.02509968  1
  C  C375  1  0.53580609  0.28600840  0.13661164  1
  H  H376  1  0.61821650  0.29357318  0.23606199  1
  C  C377  1  0.51549251  0.29450332  0.36363124  1
  H  H378  1  0.64900631  0.29538635  0.37408862  1
  C  C379  1  0.54703531  0.33639442  0.11601794  1
  O  O380  1  0.72814163  0.47433830  0.21344596  1
  H  H381  1  0.53169096  0.36618219  0.16720098  1
  H  H382  1  0.54901477  0.29861250  0.38526874  1
  C  C383  1  0.72965564  0.34919826  0.08468012  1
  H  H384  1  0.66975356  0.31671905  0.22462698  1
  C  C385  1  0.58060187  0.33693342  0.04165297  1
  C  C386  1  0.65098653  0.28730313  0.26610577  1
  C  C387  1  0.72951117  0.30243314  0.13280159  1
  C  C388  1  0.72999883  0.38913081  0.17167892  1
  C  C389  1  0.73439530  0.29606102  0.26997257  1
  C  C390  1  0.74032852  0.33550100  0.35242658  1
  H  H391  1  0.74043077  0.41252407  0.37319044  1
  H  H392  1  0.53234730  0.37167924  0.46809730  1
  H  H393  1  0.57833949  0.40512672  0.48447115  1
  C  C394  1  0.64301817  0.13872608  0.89556047  1
  C  C395  1  0.68391358  0.15459772  0.87361241  1
  H  H396  1  0.63750197  0.09845592  0.89117312  1
  C  C397  1  0.60004396  0.19417846  0.64492694  1
  H  H398  1  0.57056823  0.18174890  0.68960841  1
  H  H399  1  0.61044826  0.03504030  0.73146498  1
  C  C400  1  0.65283132  0.00784563  0.57920653  1
  C  C401  1  0.61190819  0.16943253  0.93158792  1
  O  O402  1  0.70834213  0.07399305  0.85166039  1
  C  C403  1  0.71548555  0.11980034  0.84817316  1
  C  C404  1  0.69185458  0.20493687  0.89052643  1
  C  C405  1  0.61975541  0.22116135  0.95260583  1
  H  H406  1  0.72194937  0.21710162  0.86306314  1
  Cu  Cu407  1  0.71770669  0.02751714  0.73259396  1
  O  O408  1  0.58089041  0.03323433  0.92129835  1
  H  H409  1  0.57909201  0.15275479  0.93951273  1
  C  C410  1  0.63207855  0.00794782  0.69704169  1
  C  C411  1  0.62744627  0.16240603  0.57565390  1
  O  O412  1  0.58313118  0.09420552  0.59021283  1
  C  C413  1  0.66126889  0.23736677  0.92093478  1
  C  C414  1  0.61286729  0.11366951  0.55323824  1
  C  C415  1  0.67956045  0.22571874  0.55516033  1
  C  C416  1  0.66803651  0.17836353  0.53411532  1
  C  C417  1  0.61427362  0.24203661  0.66201943  1
  H  H418  1  0.71010413  0.23865224  0.54016244  1
  H  H419  1  0.62062397  0.49949537  0.59945792  1
  C  C420  1  0.55849284  0.37727709  0.53764730  1
  H  H421  1  0.59683827  0.26783740  0.72310116  1
  C  C422  1  0.55352620  0.48523998  0.84131263  1
  H  H423  1  0.72193150  0.29852579  0.62427700  1
  H  H424  1  0.72814075  0.46960025  0.57581160  1
  H  H425  1  0.63808253  0.31904009  0.94372034  1
  C  C426  1  0.60270402  0.47932443  0.67062922  1
  C  C427  1  0.69998441  0.32876282  0.61821725  1
  O  O428  1  0.58791966  0.33584480  0.56588783  1
  C  C429  1  0.60887963  0.43003284  0.69107595  1
  C  C430  1  0.62455499  0.34665137  0.59979529  1
  H  H431  1  0.58321542  0.36933882  0.81122732  1
  C  C432  1  0.65039315  0.26051681  0.60382625  1
  C  C433  1  0.63938833  0.39452188  0.63948527  1
  H  H434  1  0.68422981  0.44902634  0.68157016  1
  H  H435  1  0.66837263  0.27564560  0.91685454  1
  H  H436  1  0.53737398  0.42022246  0.93800384  1
  H  H437  1  0.54387428  0.39464667  0.62139266  1
  C  C438  1  0.55799343  0.43576181  0.86426189  1
  C  C439  1  0.67944276  0.41095769  0.64822286  1
  C  C440  1  0.60725050  0.30778160  0.97882844  1
  C  C441  1  0.71285127  0.37717618  0.63032662  1
  C  C442  1  0.65887171  0.31361213  0.61441745  1
  C  C443  1  0.58415029  0.40861674  0.79000618  1
  H  H444  1  0.73242283  0.35286444  0.98424140  1
  C  C445  1  0.53432458  0.57029129  0.38169562  1
  C  C446  1  0.56579534  0.55491764  0.29870754  1
  C  C447  1  0.60714100  0.56104738  0.33305019  1
  H  H448  1  0.56517514  0.68922766  0.26263471  1
  O  O449  1  0.67554294  0.55085464  0.27558903  1
  Cu  Cu450  1  0.72184345  0.53995330  0.15787642  1
  C  C451  1  0.63927799  0.54710818  0.24061517  1
  H  H452  1  0.69123771  0.67938177  0.06794925  1
  C  C453  1  0.53541206  0.71371776  0.09299465  1
  O  O454  1  0.52097033  0.63636875  0.15768963  1
  H  H455  1  0.55974668  0.54183478  0.19884613  1
  C  C456  1  0.51383206  0.66623739  0.07516224  1
  H  H457  1  0.71082693  0.59631766  0.38550958  1
  C  C458  1  0.56202508  0.72087015  0.19644170  1
  O  O459  1  0.63177759  0.52461105  0.13593279  1
  H  H460  1  0.72805347  0.51228548  0.40356125  1
  C  C461  1  0.61662168  0.58794716  0.44768004  1
  C  C462  1  0.73996781  0.58735360  0.43730807  1
  O  O463  1  0.72212062  0.68660625  0.42642914  1
  H  H464  1  0.50105901  0.56706992  0.34657141  1
  H  H465  1  0.50056663  0.50419868  0.45918903  1
  H  H466  1  0.65686923  0.59725717  0.00305155  1
  H  H467  1  0.64822051  0.60172895  0.45369636  1
  C  C468  1  0.74867048  0.53919273  0.44676561  1
  H  H469  1  0.50614632  0.90946538  0.15857679  1
  C  C470  1  0.59644704  0.88690841  0.02578347  1
  H  H471  1  0.58890401  0.98447684  0.05605509  1
  C  C472  1  0.60752451  0.83946093  0.06789586  1
  H  H473  1  0.50740666  0.77100483  0.20942268  1
  O  O474  1  0.56224431  0.91015539  0.05830285  1
  C  C475  1  0.58602581  0.76346814  0.20568155  1
  O  O476  1  0.70266421  0.85590823  0.44532287  1
  Cu  Cu477  1  0.73219325  0.91468169  0.42643777  1
  C  C478  1  0.64752088  0.81929938  0.06086778  1
  H  H479  1  0.51949138  0.85409269  0.10692076  1
  H  H480  1  0.55586014  0.85384862  0.48980736  1
  H  H481  1  0.54711719  0.87161275  0.23640157  1
  H  H482  1  0.62909247  0.87344263  0.42355479  1
  O  O483  1  0.68489341  0.94798734  0.44900061  1
  O  O484  1  0.52127617  0.92952802  0.48747403  1
  H  H485  1  0.61025359  0.76715429  0.27889564  1
  C  C486  1  0.57957892  0.79707722  0.10030384  1
  H  H487  1  0.65278962  0.78445737  0.10529436  1
  C  C488  1  0.53334559  0.88669676  0.14626163  1
  H  H489  1  0.57527486  0.54598969  0.73002785  1
  O  O490  1  0.68801012  0.52289101  0.70647755  1
  C  C491  1  0.72551236  0.61457293  0.75540312  1
  C  C492  1  0.67712535  0.54722338  0.79669768  1
  C  C493  1  0.69481830  0.59438470  0.83523666  1
  H  H494  1  0.59329535  0.61618685  0.62654024  1
  C  C495  1  0.73197207  0.68041882  0.90392521  1
  H  H496  1  0.53907177  0.67340446  0.56565294  1
  C  C497  1  0.58671234  0.59774883  0.53926355  1
  C  C498  1  0.51140150  0.65583715  0.59530847  1
  O  O499  1  0.64987923  0.52972075  0.87861955  1
  O  O500  1  0.51928616  0.55731241  0.88811588  1
  C  C501  1  0.52150669  0.51288700  0.91260691  1
  H  H502  1  0.73399887  0.59581228  0.66066816  1
  C  C503  1  0.50515757  0.60625361  0.58083629  1
  C  C504  1  0.74402038  0.65819967  0.78853761  1
  C  C505  1  0.54358267  0.58957493  0.50632726  1
  C  C506  1  0.57846046  0.50791549  0.74938923  1
  C  C507  1  0.74717302  0.73151028  0.94226490  1
  H  H508  1  0.52714462  0.51314349  0.61106698  1
  H  H509  1  0.54624138  0.73499438  0.61900499  1
  C  C510  1  0.68238110  0.61717816  0.95108876  1
  C  C511  1  0.69947695  0.65996525  0.98155368  1
  H  H512  1  0.68185155  0.74746228  0.93893473  1
  H  H513  1  0.50651004  0.73789614  0.91789217  1
  C  C514  1  0.52786451  0.74775855  0.99299423  1
  C  C515  1  0.61879434  0.95524020  0.88676892  1
  O  O516  1  0.50597002  0.87985446  0.79971666  1
  C  C517  1  0.63354712  0.96420394  0.75901075  1
  C  C518  1  0.59628478  0.99161507  0.94959282  1
  C  C519  1  0.68079075  0.96975275  0.55341854  1
  C  C520  1  0.69454093  0.83591438  0.55372173  1
  H  H521  1  0.60505248  0.78279993  0.84198956  1
  C  C522  1  0.60768469  0.80289615  0.75157997  1
  C  C523  1  0.62823631  0.90709282  0.94760208  1
  C  C524  1  0.65143507  0.83238380  0.58899011  1
  C  C525  1  0.57388547  0.81937221  0.67534021  1
  C  C526  1  0.58116875  0.84261574  0.55420970  1
  C  C527  1  0.71213907  0.76189861  0.94502241  1
  H  H528  1  0.54545809  0.94561757  0.81410636  1
  C  C529  1  0.67669605  0.84140512  0.97894874  1
  H  H530  1  0.69199491  0.90684828  0.87190895  1
  H  H531  1  0.56739130  0.88201761  0.83440809  1
  H  H532  1  0.55225114  0.90767594  0.67425364  1
  C  C533  1  0.71615455  0.81275219  0.96564988  1
  H  H534  1  0.54894256  0.81552899  0.91322329  1
  H  H535  1  0.67359608  0.80199748  0.77031001  1
  C  C536  1  0.54354235  0.90708443  0.78075972  1
  C  C537  1  0.66704227  0.88742837  0.92676012  1
  C  C538  1  0.64688892  0.81030962  0.71161160  1
  C  C539  1  0.52971408  0.80391604  0.70169444  1
  O  O540  1  0.72258962  0.81891951  0.62498776  1
  H  H541  1  0.64746173  0.93310047  0.70240075  1
  C  C542  1  0.52070770  0.75762604  0.66303809  1
  O  O543  1  0.70891814  0.97352499  0.63595550  1
  C  C544  1  0.62042440  0.85189803  0.50808844  1
  H  H545  1  0.50159170  0.87496558  0.54828115  1
  C  C546  1  0.55005226  0.79102942  0.99486718  1
  C  C547  1  0.93634125  0.20615560  0.15784217  1
  C  C548  1  0.82367017  0.09832947  0.32062880  1
  H  H549  1  0.80633647  0.08290873  0.24000171  1
  O  O550  1  0.93404644  0.15920347  0.13660538  1
  C  C551  1  0.85943918  0.07362081  0.36217469  1
  C  C552  1  0.86544100  0.02593485  0.29846435  1
  C  C553  1  0.77498943  0.17457800  0.32086996  1
  C  C554  1  0.81420646  0.14497637  0.36010809  1
  H  H555  1  0.83008810  0.19773746  0.12600108  1
  C  C556  1  0.77453845  0.22614134  0.32673807  1
  C  C557  1  0.89535148  0.14012206  0.08854654  1
  H  H558  1  0.94609503  0.18185828  0.41970170  1
  C  C559  1  0.96926250  0.22365396  0.23683814  1
  H  H560  1  0.87024150  0.14807558  0.16235428  1
  H  H561  1  0.83490027  0.07660021  0.06719943  1
  C  C562  1  0.84031491  0.03643565  0.06384988  1
  C  C563  1  0.85187194  0.00829004  0.17360762  1
  H  H564  1  0.97886836  0.12415051  0.21767553  1
  C  C565  1  0.84315173  0.16290308  0.45101505  1
  C  C566  1  0.88950938  0.09012179  0.45437917  1
  H  H567  1  0.89951999  0.10142219  0.06712689  1
  O  O568  1  0.92175823  0.06433429  0.48975961  1
  C  C569  1  0.87727839  0.13767539  0.48930632  1
  H  H570  1  0.83839559  0.19902755  0.48930217  1
  C  C571  1  0.91063895  0.24495200  0.12299720  1
  C  C572  1  0.83720624  0.21787726  0.03531731  1
  C  C573  1  0.87545217  0.24397795  0.02379828  1
  C  C574  1  0.95744160  0.46282012  0.31398560  1
  H  H575  1  0.80032334  0.25025075  0.34698837  1
  C  C576  1  0.88618520  0.46653986  0.20018889  1
  C  C577  1  0.97365656  0.27179481  0.27699028  1
  H  H578  1  0.99584456  0.28234974  0.34520262  1
  C  C579  1  0.94632379  0.30863294  0.24311876  1
  H  H580  1  0.88676411  0.35594129  0.48747623  1
  C  C581  1  0.94863975  0.36024201  0.28738476  1
  C  C582  1  0.91691651  0.39087285  0.23675321  1
  C  C583  1  0.92264433  0.43906953  0.25366098  1
  H  H584  1  0.85463499  0.48290828  0.37660626  1
  C  C585  1  0.85530243  0.49191996  0.27198609  1
  C  C586  1  0.98510837  0.42904656  0.36617853  1
  C  C587  1  0.88392975  0.47275837  0.06125790  1
  C  C588  1  0.91532224  0.29381073  0.15563903  1
  H  H589  1  0.89331473  0.32033365  0.10970613  1
  C  C590  1  0.98282512  0.37838281  0.35457515  1
  H  H591  1  0.89009271  0.37663247  0.18701557  1
  H  H592  1  0.86880900  0.16159891  0.76525415  1
  C  C593  1  0.92829059  0.19047784  0.79624745  1
  C  C594  1  0.89777875  0.17195486  0.71813548  1
  Cu  Cu595  1  0.78494627  0.14723589  0.69788807  1
  O  O596  1  0.81390742  0.09489135  0.70948105  1
  O  O597  1  0.76583464  0.20652614  0.70306328  1
  C  C598  1  0.80395649  0.05022909  0.75251114  1
  H  H599  1  0.92426000  0.19764472  0.89890236  1
  O  O600  1  0.77003042  0.02811055  0.68886514  1
  C  C601  1  0.81908684  0.03210401  0.84434446  1
  C  C602  1  0.81182097  0.21734985  0.92678205  1
  C  C603  1  0.90539485  0.16626417  0.58211216  1
  C  C604  1  0.96501687  0.20552577  0.73638617  1
  H  H605  1  0.93289862  0.10517852  0.66068965  1
  C  C606  1  0.97391075  0.20245625  0.60330480  1
  H  H607  1  0.78372628  0.19682871  0.93725785  1
  H  H608  1  0.98693493  0.01458783  0.79884465  1
  C  C609  1  0.81924411  0.24617930  0.81728482  1
  C  C610  1  0.83556699  0.00879314  0.94420477  1
  C  C611  1  0.94291503  0.18195892  0.52576921  1
  C  C612  1  0.94927787  0.08510852  0.57798670  1
  H  H613  1  0.96894737  0.05692842  0.62439216  1
  C  C614  1  0.79195090  0.24478933  0.69966737  1
  H  H615  1  0.97128222  0.11134057  0.53960862  1
  H  H616  1  0.88685528  0.15612541  0.99393319  1
  O  O617  1  0.75266531  0.13318941  0.84070165  1
  O  O618  1  0.99539579  0.23383058  0.93234588  1
  C  C619  1  0.99875142  0.22747722  0.81144880  1
  H  H620  1  0.93333279  0.48838052  0.58404204  1
  C  C621  1  0.88388617  0.27186170  0.91082929  1
  H  H622  1  0.92240905  0.36863787  0.96110519  1
  H  H623  1  0.86687141  0.29190952  0.71702013  1
  C  C624  1  0.79187189  0.47582524  0.56303268  1
  O  O625  1  0.98342774  0.33653379  0.94179308  1
  C  C626  1  0.87329192  0.38209747  0.81488441  1
  C  C627  1  0.75461002  0.40026779  0.62144987  1
  H  H628  1  0.91129342  0.43803789  0.50964422  1
  C  C629  1  0.98131782  0.34166624  0.82021840  1
  C  C630  1  0.75582756  0.44925595  0.58301344  1
  C  C631  1  0.93586944  0.35087711  0.62470180  1
  H  H632  1  0.84947583  0.39606232  0.88448883  1
  H  H633  1  0.96030867  0.33900257  0.55655196  1
  H  H634  1  0.79504717  0.34265534  0.68627715  1
  O  O635  1  0.79908673  0.26770961  0.60318199  1
  H  H636  1  0.91064405  0.44664606  0.68422888  1
  C  C637  1  0.89586880  0.36381615  0.58646306  1
  C  C638  1  0.90716298  0.46410464  0.58773778  1
  H  H639  1  0.91545824  0.28943241  0.90722055  1
  O  O640  1  0.86426177  0.48359566  0.57504827  1
  C  C641  1  0.83178225  0.45579637  0.58773411  1
  C  C642  1  0.86683032  0.38096627  0.67797006  1
  C  C643  1  0.85681494  0.27120918  0.80867186  1
  C  C644  1  0.91236112  0.36677885  0.85557045  1
  C  C645  1  0.79331026  0.37858721  0.65253577  1
  C  C646  1  0.94212806  0.35393460  0.76170997  1
  C  C647  1  0.82833986  0.40702763  0.62621956  1
  H  H648  1  0.90486621  0.45344596  0.99090129  1
  H  H649  1  0.94132909  0.58053098  0.26626541  1
  C  C650  1  0.93263145  0.54281788  0.26462911  1
  H  H651  1  0.90575894  0.54071085  0.32712673  1
  O  O652  1  0.76385734  0.58020075  0.10098292  1
  H  H653  1  0.92080769  0.53009994  0.16422027  1
  H  H654  1  0.80615741  0.54332492  0.29556927  1
  C  C655  1  0.82528543  0.52870310  0.09670016  1
  C  C656  1  0.82774713  0.52708030  0.23047390  1
  C  C657  1  0.75445990  0.67694417  0.47769797  1
  H  H658  1  0.80267196  0.66429894  0.10241004  1
  H  H659  1  0.84756457  0.64832458  0.00199943  1
  C  C660  1  0.79243475  0.55891309  0.03475655  1
  C  C661  1  0.85270440  0.50167922  0.01684744  1
  O  O662  1  0.96359393  0.50988781  0.32484439  1
  C  C663  1  0.76437137  0.62594658  0.47813960  1
  C  C664  1  0.82720981  0.82499480  0.03984034  1
  H  H665  1  0.85187734  0.96976938  0.14779209  1
  C  C666  1  0.82820649  0.83419897  0.17403725  1
  H  H667  1  0.80442315  0.81268339  0.23177949  1
  C  C668  1  0.88497091  0.98771069  0.36595487  1
  C  C669  1  0.90606335  0.93123270  0.19920853  1
  O  O670  1  0.92769538  0.95605717  0.13992956  1
  H  H671  1  0.85873779  0.87013720  0.33247654  1
  C  C672  1  0.79883851  0.84953294  0.46549278  1
  C  C673  1  0.85593111  0.86693837  0.22543152  1
  O  O674  1  0.78297602  0.88553995  0.40753671  1
  C  C675  1  0.88084244  0.89323912  0.13959703  1
  O  O676  1  0.78607699  0.80765135  0.44794987  1
  H  H677  1  0.88898663  0.99211348  0.47338366  1
  O  O678  1  0.89894169  0.94503441  0.34745579  1
  C  C679  1  0.88155121  0.88320135  0.00296376  1
  H  H680  1  0.97838671  0.97005562  0.46084521  1
  H  H681  1  0.83721807  0.55530354  0.61653020  1
  C  C682  1  0.81002115  0.56484692  0.56673866  1
  O  O683  1  0.79049483  0.56187308  0.91565346  1
  H  H684  1  0.82592196  0.63990946  0.56591663  1
  C  C685  1  0.80198720  0.61338735  0.54161109  1
  H  H686  1  0.84424726  0.50550810  0.91598637  1
  H  H687  1  0.79514193  0.65564712  0.92168577  1
  C  C688  1  0.78406342  0.52607414  0.51986042  1
  O  O689  1  0.77595043  0.71039726  0.53423293  1
  H  H690  1  0.76711889  0.67469796  0.72595118  1
  O  O691  1  0.82109083  0.71987265  0.97891278  1
  C  C692  1  0.81736004  0.66941527  0.99978212  1
  C  C693  1  0.78724638  0.74753478  0.97000274  1
  C  C694  1  0.75758015  0.83192020  0.97764915  1
  H  H695  1  0.76395512  0.86929883  0.98116437  1
  C  C696  1  0.78803857  0.79837029  0.98813453  1
  C  C697  1  0.88399212  0.91114279  0.63681689  1
  C  C698  1  0.85410268  0.84978600  0.95125391  1
  C  C699  1  0.94649392  0.87900810  0.76997830  1
  C  C700  1  0.97521778  0.93929727  0.53060189  1
  C  C701  1  0.97453688  0.91660055  0.75945306  1
  H  H702  1  0.90312083  0.90146802  0.93826783  1
  C  C703  1  0.94863634  0.84237143  0.87471377  1
  H  H704  1  0.83992838  0.96922120  0.93953969  1
  H  H705  1  0.89455464  0.94853947  0.64642427  1
  H  H706  1  0.91495286  0.79018670  0.66581767  1
  C  C707  1  0.98077514  0.85114579  0.95167574  1
  H  H708  1  0.92500271  0.81388092  0.87957857  1
  O  O709  1  0.97324075  0.95307562  0.65887522  1
  C  C710  1  0.84599983  0.90732027  0.57448068  1
  Cu  Cu711  1  0.75359336  0.76868556  0.55949739  1
  C  C712  1  0.90978243  0.87147154  0.67846736  1
  C  C713  1  0.89691965  0.82426264  0.63959567  1
  C  C714  1  0.86063275  0.81687571  0.56555686  1
  H  H715  1  0.85621832  0.83982890  0.84844193  1
  H  H716  1  0.85179606  0.77932355  0.53101398  1
  C  C717  1  0.83657167  0.85868730  0.53949775  1
  H  H718  1  0.94808286  0.91606013  0.50194925  1
  H  H719  1  0.82674416  0.93835511  0.55026362  1
