# generated using pymatgen
data_CuH13C21O5
_symmetry_space_group_name_H-M   'P 1'
_cell_length_a   25.05029572
_cell_length_b   30.70687880
_cell_length_c   11.39679145
_cell_angle_alpha   90.00000000
_cell_angle_beta   90.00000000
_cell_angle_gamma   90.00000000
_symmetry_Int_Tables_number   1
_chemical_formula_structural   CuH13C21O5
_chemical_formula_sum   'Cu18 H234 C378 O90'
_cell_volume   8766.59882431
_cell_formula_units_Z   18
loop_
 _symmetry_equiv_pos_site_id
 _symmetry_equiv_pos_as_xyz
  1  'x, y, z'
loop_
 _atom_site_type_symbol
 _atom_site_label
 _atom_site_symmetry_multiplicity
 _atom_site_fract_x
 _atom_site_fract_y
 _atom_site_fract_z
 _atom_site_occupancy
  H  H0  1  0.14446423  0.06795859  0.28416446  1
  C  C1  1  0.14601251  0.05288274  0.19184509  1
  C  C2  1  0.19305082  0.13424602  0.17803871  1
  C  C3  1  0.03807853  0.17854048  0.25041819  1
  C  C4  1  0.18146599  0.20964411  0.11895714  1
  C  C5  1  0.20998550  0.17872621  0.18716605  1
  C  C6  1  0.15112669  0.12717590  0.10157650  1
  H  H7  1  0.21768328  0.10853521  0.21655431  1
  H  H8  1  0.05919965  0.16764294  0.16954376  1
  H  H9  1  0.02702843  0.04336770  0.20485092  1
  C  C10  1  0.00981058  0.05124898  0.11832274  1
  H  H11  1  0.06536427  0.18411300  0.32391502  1
  O  O12  1  0.00313780  0.21487552  0.22796273  1
  O  O13  1  0.14646910  0.01194371  0.20508322  1
  O  O14  1  0.15396470  0.00518183  0.41499320  1
  H  H15  1  0.18454720  0.18592109  0.46975593  1
  C  C16  1  0.14085177  0.07882394  0.09059739  1
  C  C17  1  0.13772295  0.19752006  0.04702417  1
  H  H18  1  0.01471151  0.14940822  0.28403510  1
  H  H19  1  0.19237976  0.24421372  0.11319262  1
  C  C20  1  0.11971867  0.15496519  0.02530852  1
  H  H21  1  0.04634988  0.04719585  0.05705450  1
  H  H22  1  0.18835020  0.00426282  0.03336289  1
  C  C23  1  0.00529919  0.05727191  0.45120459  1
  H  H24  1  0.08178167  0.29268515  0.46368001  1
  C  C25  1  0.00905562  0.30530649  0.20187954  1
  H  H26  1  0.24183948  0.25376870  0.30897720  1
  H  H27  1  0.24802109  0.26998511  0.48068386  1
  C  C28  1  0.11959555  0.44717916  0.48576614  1
  H  H29  1  0.05257809  0.25135849  0.08128377  1
  H  H30  1  0.03353941  0.28165690  0.24778158  1
  H  H31  1  0.05911799  0.36495963  0.22890099  1
  Cu  Cu32  1  0.11869663  0.41942787  0.03176522  1
  O  O33  1  0.15894401  0.32157023  0.19982718  1
  H  H34  1  0.07253543  0.48867968  0.37162895  1
  C  C35  1  0.01788208  0.42814335  0.12390433  1
  C  C36  1  0.16508348  0.45206768  0.41166128  1
  H  H37  1  0.07152387  0.35100231  0.37895742  1
  O  O38  1  0.06618894  0.43060219  0.15548663  1
  O  O39  1  0.16653224  0.38369370  0.10917393  1
  H  H40  1  0.20618356  0.42792081  0.26139926  1
  C  C41  1  0.15482247  0.35953802  0.20494941  1
  C  C42  1  0.14257876  0.38543229  0.31714639  1
  C  C43  1  0.09985433  0.37787804  0.39535339  1
  C  C44  1  0.23184145  0.48692401  0.06623521  1
  C  C45  1  0.17506272  0.42256545  0.32288681  1
  C  C46  1  0.02207219  0.34954249  0.19452284  1
  C  C47  1  0.08508782  0.41082451  0.47404260  1
  H  H48  1  0.19364063  0.47833553  0.42396656  1
  C  C49  1  0.07567018  0.26312138  0.00472191  1
  C  C50  1  0.07342448  0.13972128  0.65455294  1
  C  C51  1  0.18170492  0.15558720  0.75798508  1
  C  C52  1  0.10519438  0.17539231  0.62922964  1
  H  H53  1  0.14990110  0.14864127  0.82352935  1
  H  H54  1  0.13188637  0.07857589  0.89912287  1
  C  C55  1  0.04716810  0.17120534  0.89910113  1
  H  H56  1  0.09238263  0.11145919  0.68607974  1
  C  C57  1  0.16682602  0.16940469  0.64296550  1
  O  O58  1  0.15922309  0.06264284  0.72810009  1
  C  C59  1  0.08946690  0.21737929  0.59289962  1
  C  C60  1  0.19311062  0.03658828  0.74033173  1
  H  H61  1  0.04238629  0.06869767  0.77339792  1
  H  H62  1  0.06697380  0.19009173  0.82463507  1
  O  O63  1  0.08033350  0.13981038  0.95752132  1
  C  C64  1  0.14602947  0.06052120  0.97244715  1
  H  H65  1  0.07677711  0.02592081  0.78084583  1
  H  H66  1  0.17885340  0.21808236  0.83399842  1
  C  C67  1  0.03299838  0.22081664  0.60113435  1
  C  C68  1  0.17834937  0.02438127  0.95469108  1
  H  H69  1  0.02832303  0.19458470  0.96385825  1
  C  C70  1  0.11654504  0.23554598  0.96676664  1
  C  C71  1  0.23503713  0.15016432  0.78318872  1
  C  C72  1  0.01713573  0.14470834  0.65180494  1
  H  H73  1  0.01533693  0.15274822  0.84780641  1
  C  C74  1  0.20287401  0.01122981  0.84690641  1
  O  O75  1  0.22916492  0.02617543  0.62730368  1
  C  C76  1  0.14907988  0.24268718  0.86437501  1
  H  H77  1  0.04144117  0.05639305  0.50875090  1
  C  C78  1  0.20297984  0.17549476  0.54925879  1
  O  O79  1  0.12709544  0.24682532  0.56546511  1
  C  C80  1  0.24593320  0.42078857  0.97445249  1
  C  C81  1  0.11232560  0.29108826  0.53843367  1
  C  C82  1  0.00525191  0.26458191  0.58704360  1
  H  H83  1  0.02155985  0.28353174  0.76497625  1
  H  H84  1  0.04813973  0.41181742  0.52728425  1
  C  C85  1  0.00686597  0.29581142  0.68077618  1
  C  C86  1  0.18440741  0.47214517  0.88170225  1
  C  C87  1  0.19531031  0.49935308  0.97905541  1
  H  H88  1  0.04776799  0.33204452  0.98963535  1
  C  C89  1  0.15696903  0.48975812  0.77337366  1
  C  C90  1  0.21175225  0.43120249  0.88010199  1
  H  H91  1  0.17896970  0.29346185  0.74910717  1
  O  O92  1  0.13790739  0.36765727  0.74490787  1
  C  C93  1  0.12636613  0.48439373  0.57466062  1
  C  C94  1  0.10678696  0.31206151  0.86055420  1
  C  C95  1  0.14359042  0.46351026  0.67328242  1
  H  H96  1  0.20096248  0.33287256  0.99430694  1
  H  H97  1  0.09151499  0.30385336  0.62244706  1
  C  C98  1  0.24510803  0.33397850  0.97878372  1
  C  C99  1  0.14704662  0.28404666  0.81566787  1
  C  C100  1  0.07129956  0.30532782  0.95402235  1
  O  O101  1  0.08801889  0.38993470  0.89991141  1
  H  H102  1  0.20906269  0.40996402  0.80262890  1
  C  C103  1  0.11126896  0.35977571  0.83618133  1
  H  H104  1  0.15056707  0.42792914  0.66777890  1
  H  H105  1  0.14617580  0.31315811  0.51778233  1
  C  C106  1  0.09558756  0.62573052  0.20037859  1
  C  C107  1  0.12303087  0.66460322  0.21587881  1
  C  C108  1  0.14694516  0.69024249  0.12698118  1
  H  H109  1  0.07651135  0.60775499  0.27447628  1
  H  H110  1  0.13307773  0.67459580  0.30713785  1
  H  H111  1  0.16850926  0.56353230  0.13724120  1
  O  O112  1  0.05355375  0.53873788  0.10861922  1
  C  C113  1  0.09492316  0.60965390  0.08356706  1
  H  H114  1  0.21158918  0.62968597  0.23283618  1
  C  C115  1  0.20850156  0.56222372  0.17013804  1
  C  C116  1  0.18012817  0.73203850  0.15057150  1
  H  H117  1  0.05142979  0.71177979  0.05890060  1
  C  C118  1  0.06971344  0.56908870  0.03897339  1
  H  H119  1  0.07678930  0.53485904  0.27200291  1
  C  C120  1  0.09758674  0.51833872  0.34884963  1
  C  C121  1  0.22606548  0.73306537  0.08179140  1
  O  O122  1  0.10475118  0.54715261  0.44455791  1
  C  C123  1  0.23225569  0.59925945  0.21545085  1
  H  H124  1  0.13549872  0.50646630  0.31371468  1
  H  H125  1  0.23293287  0.70273316  0.02999016  1
  C  C126  1  0.00794706  0.71014114  0.03840829  1
  C  C127  1  0.14203944  0.67382833  0.01254054  1
  H  H128  1  0.22037249  0.74145515  0.39557945  1
  C  C129  1  0.24108898  0.52403599  0.14816929  1
  C  C130  1  0.24153454  0.80520246  0.14406697  1
  H  H131  1  0.21894889  0.84845462  0.42708533  1
  C  C132  1  0.00356198  0.88825182  0.09708229  1
  C  C133  1  0.18183367  0.91105333  0.39392688  1
  H  H134  1  0.11742654  0.81011615  0.38603076  1
  H  H135  1  0.04741499  0.88801678  0.10094077  1
  H  H136  1  0.19038731  0.92574605  0.47466855  1
  C  C137  1  0.19596539  0.86815750  0.36752472  1
  C  C138  1  0.03091118  0.94847648  0.41179316  1
  O  O139  1  0.05025558  0.96629185  0.11819912  1
  O  O140  1  0.10837543  0.76523800  0.25595260  1
  C  C141  1  0.19270742  0.80463340  0.20214641  1
  C  C142  1  0.18442370  0.85051347  0.25329481  1
  H  H143  1  0.14476617  0.86006709  0.08453675  1
  C  C144  1  0.04178423  0.90850596  0.46041715  1
  C  C145  1  0.15822705  0.87607439  0.16795066  1
  H  H146  1  0.08391768  0.83439669  0.25619499  1
  C  C147  1  0.14705215  0.91899548  0.19927600  1
  H  H148  1  0.07095912  0.88779754  0.41994145  1
  H  H149  1  0.05268866  0.95841672  0.33143464  1
  C  C150  1  0.15157437  0.98616767  0.32676493  1
  H  H151  1  0.12346016  0.94132389  0.13996428  1
  C  C152  1  0.08847902  0.80419977  0.31148684  1
  C  C153  1  0.15643134  0.76750307  0.20864610  1
  H  H154  1  0.00402663  0.81537039  0.06562268  1
  C  C155  1  0.15756096  0.93790319  0.31176790  1
  H  H156  1  0.04976972  0.79410855  0.35450224  1
  C  C157  1  0.00258084  0.96820872  0.11017835  1
  C  C158  1  0.12888871  0.55238018  0.65363946  1
  C  C159  1  0.16902494  0.63090650  0.68853823  1
  C  C160  1  0.16190141  0.67239125  0.73502583  1
  C  C161  1  0.12528309  0.60147211  0.66940816  1
  C  C162  1  0.07224160  0.61491711  0.69284673  1
  C  C163  1  0.10755792  0.68443423  0.75255879  1
  H  H164  1  0.19398698  0.69489227  0.76210496  1
  C  C165  1  0.06379090  0.65790044  0.72662501  1
  H  H166  1  0.16553935  0.55944010  0.81812703  1
  C  C167  1  0.15039197  0.53457711  0.75913799  1
  H  H168  1  0.11206038  0.62007572  0.89757890  1
  C  C169  1  0.11816326  0.52965188  0.54727830  1
  H  H170  1  0.03849005  0.59092861  0.67814607  1
  H  H171  1  0.15449805  0.69445580  0.93641067  1
  C  C172  1  0.09690190  0.72754057  0.79618695  1
  H  H173  1  0.20839662  0.61937127  0.67603417  1
  H  H174  1  0.02448280  0.66817885  0.75205221  1
  H  H175  1  0.17511960  0.53099910  0.99452954  1
  O  O176  1  0.06385582  0.56536871  0.93492158  1
  C  C177  1  0.11792174  0.63328079  0.99126544  1
  H  H178  1  0.00040816  0.70210903  0.94430145  1
  O  O179  1  0.04806049  0.73947342  0.80392022  1
  C  C180  1  0.05878418  0.99684812  0.81296006  1
  C  C181  1  0.05998615  0.92009554  0.85550800  1
  C  C182  1  0.23567940  0.97443281  0.86379638  1
  O  O183  1  0.19825012  0.81186828  0.69415352  1
  H  H184  1  0.23132248  0.96727237  0.95898658  1
  O  O185  1  0.05191710  0.84400095  0.89460552  1
  C  C186  1  0.01820215  0.85007768  0.59924733  1
  Cu  Cu187  1  0.09565746  0.79032833  0.61477297  1
  O  O188  1  0.13524909  0.75252760  0.82194642  1
  Cu  Cu189  1  0.03172457  0.79753931  0.79980684  1
  O  O190  1  0.16208437  0.76540536  0.57426716  1
  Cu  Cu191  1  0.14657271  0.81217113  0.82640420  1
  C  C192  1  0.01208702  0.89476296  0.56091762  1
  C  C193  1  0.08644613  0.95853413  0.82467129  1
  C  C194  1  0.00324681  0.91946913  0.87684387  1
  O  O195  1  0.04469546  0.82307655  0.53906248  1
  O  O196  1  0.13194998  0.87199934  0.85642520  1
  C  C197  1  0.08118809  0.87605022  0.86692347  1
  H  H198  1  0.12979169  0.95791751  0.80394203  1
  C  C199  1  0.20368859  0.78600105  0.60808052  1
  C  C200  1  0.00128360  0.99872056  0.82757220  1
  C  C201  1  0.35627606  0.17246571  0.28132934  1
  C  C202  1  0.40042019  0.13803140  0.27280897  1
  C  C203  1  0.30589870  0.15862829  0.24428767  1
  C  C204  1  0.37345056  0.21525284  0.32549429  1
  C  C205  1  0.40913937  0.12007195  0.38528105  1
  H  H206  1  0.30196493  0.12702974  0.20159921  1
  C  C207  1  0.43063225  0.12918090  0.16812395  1
  H  H208  1  0.41869317  0.14580009  0.08534015  1
  C  C209  1  0.46877124  0.20328548  0.33239456  1
  C  C210  1  0.45536930  0.09358299  0.39235076  1
  H  H211  1  0.38107122  0.12986575  0.45754725  1
  H  H212  1  0.46604734  0.17640877  0.39795516  1
  O  O213  1  0.42005077  0.23143562  0.35425123  1
  C  C214  1  0.26255611  0.18897089  0.24543726  1
  C  C215  1  0.27384193  0.22979474  0.29858092  1
  H  H216  1  0.46567319  0.19121369  0.24020121  1
  C  C217  1  0.47811871  0.10477408  0.17999569  1
  C  C218  1  0.48694693  0.08580383  0.29122119  1
  C  C219  1  0.32611065  0.23964620  0.33592668  1
  H  H220  1  0.46547027  0.07909610  0.47667267  1
  H  H221  1  0.32522163  0.36868868  0.13068870  1
  H  H222  1  0.32173403  0.38270466  0.28230516  1
  H  H223  1  0.32077126  0.49270007  0.17518575  1
  H  H224  1  0.41604478  0.36431526  0.47228300  1
  O  O225  1  0.28561742  0.43312283  0.17475940  1
  C  C226  1  0.25618242  0.44567255  0.07843765  1
  C  C227  1  0.32651956  0.28345991  0.39795315  1
  H  H228  1  0.26220991  0.37142168  0.19372086  1
  C  C229  1  0.28198581  0.29401993  0.46924891  1
  C  C230  1  0.37695534  0.34718150  0.46660712  1
  H  H231  1  0.37516199  0.47900292  0.32766016  1
  H  H232  1  0.40611047  0.30098920  0.33636560  1
  C  C233  1  0.30151426  0.38962536  0.19507108  1
  O  O234  1  0.28991117  0.46365067  0.45109368  1
  C  C235  1  0.37293719  0.31074538  0.39188775  1
  O  O236  1  0.34301633  0.14814509  0.81851559  1
  C  C237  1  0.32823193  0.15544681  0.71400384  1
  H  H238  1  0.42545490  0.17872771  0.73262045  1
  O  O239  1  0.35772108  0.16071168  0.63371080  1
  C  C240  1  0.46463466  0.19286755  0.71134911  1
  Cu  Cu241  1  0.39409081  0.17497590  0.92256347  1
  O  O242  1  0.44685104  0.13693530  0.88700693  1
  C  C243  1  0.46978436  0.22539916  0.63115992  1
  C  C244  1  0.26802213  0.15826052  0.68739340  1
  C  C245  1  0.49729002  0.14999377  0.88343389  1
  O  O246  1  0.35066569  0.22039187  0.95696142  1
  H  H247  1  0.43450043  0.23575859  0.57967983  1
  C  C248  1  0.25801527  0.16850894  0.57008883  1
  H  H249  1  0.25070072  0.14164400  0.87114009  1
  H  H250  1  0.29252217  0.17345408  0.50597628  1
  H  H251  1  0.25719353  0.26308278  0.99176077  1
  C  C252  1  0.36646493  0.26039600  0.93559227  1
  C  C253  1  0.35563457  0.34000318  0.93722800  1
  C  C254  1  0.26995497  0.37534174  0.96055627  1
  C  C255  1  0.28697302  0.33156080  0.53626543  1
  O  O256  1  0.38658385  0.41263953  0.62261608  1
  H  H257  1  0.25550862  0.34233572  0.60066599  1
  H  H258  1  0.46291725  0.31784467  0.58260952  1
  C  C259  1  0.33374533  0.35750118  0.53958735  1
  Cu  Cu260  1  0.30323145  0.45742250  0.77210492  1
  Cu  Cu261  1  0.39939326  0.45618750  0.71489820  1
  O  O262  1  0.30363943  0.40661428  0.68436932  1
  C  C263  1  0.30617703  0.48828731  0.52494226  1
  H  H264  1  0.39911103  0.34382055  0.92307661  1
  C  C265  1  0.33043978  0.29871786  0.94655314  1
  O  O266  1  0.41272846  0.26654436  0.90634514  1
  O  O267  1  0.28166075  0.49093959  0.62725771  1
  C  C268  1  0.27585238  0.29524270  0.97609275  1
  C  C269  1  0.49902583  0.31501383  0.52491976  1
  C  C270  1  0.34100122  0.39393645  0.62547615  1
  C  C271  1  0.32707877  0.37820202  0.94099357  1
  O  O272  1  0.40452197  0.49911318  0.82113140  1
  H  H273  1  0.34445778  0.40902722  0.92460804  1
  C  C274  1  0.28760068  0.59749372  0.23935202  1
  O  O275  1  0.29220004  0.67258179  0.26541125  1
  C  C276  1  0.31568264  0.63857969  0.26683932  1
  O  O277  1  0.36829912  0.63702627  0.28571818  1
  C  C278  1  0.32021942  0.55894773  0.23236938  1
  Cu  Cu279  1  0.41463495  0.65943488  0.17502597  1
  H  H280  1  0.36243115  0.55858931  0.25751704  1
  C  C281  1  0.47253735  0.63092937  0.41483973  1
  C  C282  1  0.42864302  0.71972641  0.39225246  1
  H  H283  1  0.43259431  0.63713390  0.45119161  1
  C  C284  1  0.43798145  0.52449593  0.38479619  1
  C  C285  1  0.47662424  0.70941392  0.33106282  1
  C  C286  1  0.29511546  0.52189154  0.19013023  1
  O  O287  1  0.45574533  0.68172526  0.05880640  1
  O  O288  1  0.47234240  0.54603267  0.14206578  1
  Cu  Cu289  1  0.48611115  0.60115009  0.20300581  1
  H  H290  1  0.46524233  0.51474095  0.31335388  1
  C  C291  1  0.45259546  0.55924190  0.46041845  1
  H  H292  1  0.40947012  0.69988893  0.45869504  1
  C  C293  1  0.49666568  0.58979564  0.42061099  1
  C  C294  1  0.49609909  0.73898725  0.24556705  1
  H  H295  1  0.30174382  0.69286798  0.04369967  1
  C  C296  1  0.39057192  0.50157163  0.39750409  1
  H  H297  1  0.31232331  0.72802481  0.31215492  1
  C  C298  1  0.35901529  0.51203832  0.49575497  1
  C  C299  1  0.49786415  0.80810373  0.14484976  1
  C  C300  1  0.40692314  0.76189360  0.37306645  1
  C  C301  1  0.31497975  0.76290084  0.01791640  1
  C  C302  1  0.46948474  0.78007829  0.23147316  1
  H  H303  1  0.26141159  0.83716823  0.14087611  1
  C  C304  1  0.26169071  0.76892756  0.08081440  1
  C  C305  1  0.35398093  0.77048932  0.43389960  1
  H  H306  1  0.42352174  0.83344890  0.06431352  1
  H  H307  1  0.32247463  0.86243661  0.23558025  1
  O  O308  1  0.39475783  0.82890493  0.24891491  1
  H  H309  1  0.33301753  0.84326990  0.38271952  1
  C  C310  1  0.25730991  0.75664015  0.43493595  1
  H  H311  1  0.32066951  0.80385378  0.26525725  1
  C  C312  1  0.34193571  0.83510635  0.29114545  1
  C  C313  1  0.46702588  0.83654048  0.07227514  1
  C  C314  1  0.30650141  0.75154857  0.38364937  1
  C  C315  1  0.42136327  0.79419058  0.28295418  1
  C  C316  1  0.40743907  0.63626918  0.83901098  1
  H  H317  1  0.44557738  0.57734229  0.78834295  1
  C  C318  1  0.41023644  0.59226672  0.83306234  1
  C  C319  1  0.36318977  0.70459725  0.91395730  1
  C  C320  1  0.36578407  0.56645647  0.87079190  1
  C  C321  1  0.32140332  0.58686228  0.92057705  1
  C  C322  1  0.36064390  0.65683609  0.89272975  1
  C  C323  1  0.31552321  0.63300529  0.93044827  1
  H  H324  1  0.34641078  0.55399758  0.64709438  1
  H  H325  1  0.43025074  0.59338259  0.62264310  1
  O  O326  1  0.42898424  0.71880448  0.77134861  1
  C  C327  1  0.39532167  0.73349104  0.84818154  1
  C  C328  1  0.37198501  0.54498210  0.57578965  1
  C  C329  1  0.41919617  0.56789573  0.55854130  1
  H  H330  1  0.44148155  0.65728612  0.81085499  1
  H  H331  1  0.29094533  0.56384139  0.95227106  1
  H  H332  1  0.48850312  0.58017046  0.93240960  1
  O  O333  1  0.31938758  0.50048667  0.86928555  1
  C  C334  1  0.36363477  0.51900206  0.86041822  1
  C  C335  1  0.32562595  0.71853446  0.99678414  1
  H  H336  1  0.28168995  0.64964468  0.96871869  1
  C  C337  1  0.26875501  0.95053343  0.79368205  1
  C  C338  1  0.29808435  0.79607896  0.59112141  1
  C  C339  1  0.46352834  0.75515969  0.71289404  1
  H  H340  1  0.46991173  0.85927577  0.75623876  1
  O  O341  1  0.34057133  0.93731495  0.52850498  1
  H  H342  1  0.32904427  0.83064177  0.95809032  1
  C  C343  1  0.40428214  0.81754298  0.81950727  1
  H  H344  1  0.44195343  0.76823486  0.63286671  1
  H  H345  1  0.47683282  0.78212376  0.77282775  1
  C  C346  1  0.38209545  0.78008741  0.87494486  1
  C  C347  1  0.42481708  0.85430104  0.76880495  1
  H  H348  1  0.29343993  0.81163059  0.68208634  1
  C  C349  1  0.33976210  0.79532082  0.95119275  1
  O  O350  1  0.34013360  0.89186234  0.69954177  1
  H  H351  1  0.45922673  0.88939697  0.95023984  1
  C  C352  1  0.26181716  0.99510488  0.61559314  1
  C  C353  1  0.34719686  0.79313086  0.54087081  1
  C  C354  1  0.32098715  0.93070608  0.61920062  1
  H  H355  1  0.29054864  0.92284214  0.83783667  1
  C  C356  1  0.38855031  0.88509574  0.71235403  1
  H  H357  1  0.37982738  0.80851360  0.59289220  1
  C  C358  1  0.28236136  0.96029920  0.67755278  1
  H  H359  1  0.40771598  0.91169611  0.64776708  1
  C  C360  1  0.25143621  0.77897403  0.54094027  1
  H  H361  1  0.28716760  0.99051523  0.53739992  1
  C  C362  1  0.48743725  0.86880330  0.99982168  1
  H  H363  1  0.49216707  0.75301682  0.96950662  1
  O  O364  1  0.56511767  0.05260173  0.21937813  1
  O  O365  1  0.67478817  0.05240452  0.12639061  1
  C  C366  1  0.71386189  0.03149215  0.08277932  1
  Cu  Cu367  1  0.63588855  0.03394199  0.24970192  1
  H  H368  1  0.73538569  0.08968594  0.23826904  1
  C  C369  1  0.53511817  0.05808562  0.30919909  1
  O  O370  1  0.68746144  0.03951480  0.36657146  1
  O  O371  1  0.54734262  0.04468680  0.40835975  1
  H  H372  1  0.50520790  0.09862625  0.10162713  1
  H  H373  1  0.58092450  0.18693024  0.36716752  1
  O  O374  1  0.62146295  0.23712795  0.46206556  1
  C  C375  1  0.59688823  0.19849590  0.45264795  1
  H  H376  1  0.62984359  0.17552919  0.47686168  1
  H  H377  1  0.50821374  0.21811296  0.33947645  1
  C  C378  1  0.69384116  0.06543043  0.45312471  1
  O  O379  1  0.65483937  0.08758117  0.49018336  1
  O  O380  1  0.70603091  0.00324677  0.00303242  1
  C  C381  1  0.73130607  0.46196009  0.24152730  1
  H  H382  1  0.66623514  0.25262506  0.28926863  1
  C  C383  1  0.74135596  0.28826103  0.29792585  1
  H  H384  1  0.59359541  0.47309175  0.03224045  1
  C  C385  1  0.73600467  0.36181689  0.38187654  1
  H  H386  1  0.65522191  0.48586832  0.31197634  1
  H  H387  1  0.57701723  0.38483963  0.35107171  1
  C  C388  1  0.60030578  0.31516385  0.40974170  1
  H  H389  1  0.71656946  0.44683067  0.16352721  1
  C  C390  1  0.68546413  0.28317606  0.31459029  1
  O  O391  1  0.51428587  0.48401020  0.16228199  1
  C  C392  1  0.56577413  0.35292905  0.38858933  1
  H  H393  1  0.51025265  0.49590524  0.45081717  1
  C  C394  1  0.58428448  0.27602176  0.46340732  1
  C  C395  1  0.69909826  0.48242919  0.32545804  1
  C  C396  1  0.65636322  0.31942827  0.36290773  1
  H  H397  1  0.65764970  0.38903081  0.41747014  1
  C  C398  1  0.67947722  0.36057283  0.38957735  1
  C  C399  1  0.51922408  0.34641224  0.45524419  1
  H  H400  1  0.60305962  0.13655032  0.62406391  1
  C  C401  1  0.62944213  0.14479899  0.69696401  1
  O  O402  1  0.56853186  0.06790014  0.69106666  1
  C  C403  1  0.63000628  0.11147395  0.78790082  1
  C  C404  1  0.60308279  0.06998090  0.76993548  1
  C  C405  1  0.66782818  0.17708574  0.69296540  1
  H  H406  1  0.71475861  0.11309982  0.65066214  1
  H  H407  1  0.67241265  0.19934922  0.61957876  1
  C  C408  1  0.66028454  0.11723944  0.89028479  1
  O  O409  1  0.61455190  0.03889332  0.83927343  1
  C  C410  1  0.70098178  0.18119641  0.79730307  1
  C  C411  1  0.55777424  0.20071350  0.77544188  1
  H  H412  1  0.59071766  0.18936639  0.82941671  1
  H  H413  1  0.65353690  0.09595016  0.96583899  1
  Cu  Cu414  1  0.58767068  0.06697077  0.53367088  1
  C  C415  1  0.74416356  0.07001920  0.51436882  1
  C  C416  1  0.56656122  0.23311254  0.69128724  1
  C  C417  1  0.52283142  0.24378198  0.61785906  1
  C  C418  1  0.69561741  0.15271303  0.89708524  1
  H  H419  1  0.71972242  0.15769142  0.97630775  1
  C  C420  1  0.74930155  0.09480444  0.61581083  1
  C  C421  1  0.50762694  0.18042341  0.78419007  1
  O  O422  1  0.52767168  0.14350617  0.96022861  1
  C  C423  1  0.74257614  0.21583487  0.79876379  1
  H  H424  1  0.56248733  0.18925004  0.51802889  1
  C  C425  1  0.58146420  0.49727770  0.96679649  1
  H  H426  1  0.60481694  0.25206574  0.68858277  1
  C  C427  1  0.74323113  0.25546508  0.73403959  1
  H  H428  1  0.67908509  0.43670161  0.51014167  1
  O  O429  1  0.70389207  0.26856407  0.66775244  1
  H  H430  1  0.74254401  0.31478434  0.54507593  1
  C  C431  1  0.53633492  0.27634796  0.52447541  1
  H  H432  1  0.70571162  0.34158502  0.66290426  1
  H  H433  1  0.74591221  0.33932299  0.88112906  1
  H  H434  1  0.67033814  0.31802115  0.55679452  1
  C  C435  1  0.70702923  0.31198725  0.60398709  1
  O  O436  1  0.66290181  0.47137176  0.67054844  1
  H  H437  1  0.73699895  0.45633113  0.58781652  1
  C  C438  1  0.69616176  0.44217924  0.59703505  1
  H  H439  1  0.70300427  0.40999672  0.63877059  1
  H  H440  1  0.65093909  0.48455425  0.86088790  1
  H  H441  1  0.57258573  0.47786921  0.50130706  1
  C  C442  1  0.65463690  0.63780163  0.21538727  1
  C  C443  1  0.69450312  0.63540864  0.12992485  1
  C  C444  1  0.62855916  0.55965073  0.18086675  1
  C  C445  1  0.61982118  0.60131501  0.23139591  1
  H  H446  1  0.65385594  0.66569077  0.27461760  1
  C  C447  1  0.57021761  0.60901600  0.30676784  1
  H  H448  1  0.57154371  0.67694846  0.25087343  1
  C  C449  1  0.55077255  0.65120743  0.30098006  1
  C  C450  1  0.54816465  0.57638948  0.38021246  1
  H  H451  1  0.59994813  0.53282791  0.19987918  1
  C  C452  1  0.72182170  0.71401913  0.33748425  1
  H  H453  1  0.71154230  0.57381349  0.39982636  1
  O  O454  1  0.57265212  0.53725478  0.39650803  1
  C  C455  1  0.67147273  0.71630566  0.39818099  1
  C  C456  1  0.69931439  0.59473375  0.07228962  1
  C  C457  1  0.66854867  0.55686957  0.09860667  1
  H  H458  1  0.55881314  0.73081646  0.37304812  1
  H  H459  1  0.67083981  0.52577549  0.04160339  1
  H  H460  1  0.71691145  0.66405664  0.09976781  1
  O  O461  1  0.51770476  0.63118993  0.07414195  1
  H  H462  1  0.53075829  0.73022323  0.20235404  1
  C  C463  1  0.74865630  0.67631582  0.37051036  1
  C  C464  1  0.50172293  0.66684688  0.03762660  1
  C  C465  1  0.50744489  0.51586121  0.10366025  1
  O  O466  1  0.73579941  0.74585092  0.26108144  1
  C  C467  1  0.55060820  0.50856419  0.48094331  1
  C  C468  1  0.72097569  0.50159452  0.42808925  1
  C  C469  1  0.69001130  0.56725243  0.48248976  1
  C  C470  1  0.64863958  0.68498921  0.47196898  1
  C  C471  1  0.67653960  0.64541466  0.48883162  1
  C  C472  1  0.72987642  0.64384916  0.44940694  1
  C  C473  1  0.50197614  0.66367861  0.35520078  1
  O  O474  1  0.74356834  0.85983168  0.10686437  1
  H  H475  1  0.57930955  0.78528775  0.17540931  1
  O  O476  1  0.64583279  0.94014056  0.19055958  1
  H  H477  1  0.66856331  0.86824411  0.38029197  1
  Cu  Cu478  1  0.59163265  0.95600161  0.29128545  1
  C  C479  1  0.55767026  0.80058964  0.38452669  1
  C  C480  1  0.55493150  0.80977703  0.12985173  1
  C  C481  1  0.72279130  0.93478803  0.31188111  1
  C  C482  1  0.59003774  0.83881925  0.39180690  1
  C  C483  1  0.71882237  0.88579168  0.15974056  1
  C  C484  1  0.64509561  0.83756979  0.38349231  1
  O  O485  1  0.51811003  0.88448430  0.40256680  1
  H  H486  1  0.71161974  0.96621416  0.34699815  1
  C  C487  1  0.63829925  0.75814498  0.39078877  1
  C  C488  1  0.57588143  0.84296007  0.05865526  1
  C  C489  1  0.56422865  0.88191223  0.40692130  1
  H  H490  1  0.61821845  0.85098480  0.05483392  1
  H  H491  1  0.51503767  0.80771208  0.37822138  1
  C  C492  1  0.67059712  0.79680144  0.38751533  1
  C  C493  1  0.68826683  0.91847720  0.21710003  1
  C  C494  1  0.58135765  0.75982690  0.37984805  1
  H  H495  1  0.71532417  0.79358139  0.39565052  1
  O  O496  1  0.59479578  0.91918908  0.41634740  1
  H  H497  1  0.61221158  0.61441562  0.69142456  1
  C  C498  1  0.63319455  0.58998400  0.64354551  1
  H  H499  1  0.54651098  0.59199847  0.75277716  1
  C  C500  1  0.55718377  0.56867810  0.81952939  1
  C  C501  1  0.63453562  0.54636819  0.68613311  1
  C  C502  1  0.60136192  0.53962467  0.79598377  1
  C  C503  1  0.63029763  0.69573973  0.89599524  1
  H  H504  1  0.66860080  0.67891100  0.87242204  1
  C  C505  1  0.66310526  0.60200349  0.54629652  1
  C  C506  1  0.52588111  0.56111663  0.91865631  1
  H  H507  1  0.54374977  0.52873982  0.56101305  1
  C  C508  1  0.68828416  0.52486701  0.52467592  1
  C  C509  1  0.58934056  0.67332193  0.95084501  1
  H  H510  1  0.72935536  0.72800293  0.93855364  1
  C  C511  1  0.61600027  0.50602163  0.87417083  1
  C  C512  1  0.62368199  0.74069206  0.87527466  1
  C  C513  1  0.66198694  0.51174076  0.62927835  1
  H  H514  1  0.50192164  0.73946622  0.68109917  1
  C  C515  1  0.52911193  0.73861560  0.94105872  1
  C  C516  1  0.53758231  0.52530036  0.99207995  1
  H  H517  1  0.61007325  0.69286811  0.51690911  1
  O  O518  1  0.74968475  0.55308275  0.93067686  1
  C  C519  1  0.54143708  0.69550982  0.97886235  1
  H  H520  1  0.59013385  0.63675232  0.97353000  1
  C  C521  1  0.74091287  0.59203687  0.97930346  1
  C  C522  1  0.72273848  0.75858602  0.89175177  1
  H  H523  1  0.56712259  0.76879771  0.66646540  1
  Cu  Cu524  1  0.65759251  0.95957044  0.97763025  1
  O  O525  1  0.61959591  0.82841173  0.71320306  1
  C  C526  1  0.73024921  0.90654257  0.63680147  1
  C  C527  1  0.64664376  0.87134303  0.65145064  1
  C  C528  1  0.69177767  0.87388012  0.68651545  1
  H  H529  1  0.57177450  0.79709350  0.88528794  1
  C  C530  1  0.58831105  0.79677340  0.62735132  1
  O  O531  1  0.53951708  0.94322215  0.89528997  1
  C  C532  1  0.70959653  0.83549570  0.77386063  1
  H  H533  1  0.61454432  0.78320905  0.55796959  1
  Cu  Cu534  1  0.57644671  0.99267742  0.87217472  1
  C  C535  1  0.67313251  0.76929172  0.84047594  1
  C  C536  1  0.56470895  0.91280198  0.94368401  1
  H  H537  1  0.62354107  0.89104555  0.58282188  1
  C  C538  1  0.66648142  0.80801448  0.78223129  1
  C  C539  1  0.57302852  0.76147036  0.89530878  1
  H  H540  1  0.55898325  0.81861888  0.58291735  1
  O  O541  1  0.61483238  0.91491665  0.93974440  1
  O  O542  1  0.74151721  0.93766215  0.68704160  1
  C  C543  1  0.54313003  0.87285030  0.99955928  1
  C  C544  1  0.93573358  0.09966027  0.33585652  1
  C  C545  1  0.91201010  0.05828643  0.30550627  1
  H  H546  1  0.92721864  0.13440934  0.30162117  1
  C  C547  1  0.81798702  0.08007495  0.26430711  1
  C  C548  1  0.86508285  0.05833437  0.22313686  1
  C  C549  1  0.94249986  0.17426038  0.08556532  1
  C  C550  1  0.86378836  0.02859472  0.12717037  1
  C  C551  1  0.81469698  0.01876052  0.07554220  1
  H  H552  1  0.81967895  0.10480265  0.33225597  1
  H  H553  1  0.89984849  0.00911026  0.09792753  1
  C  C554  1  0.97782352  0.08998806  0.40667859  1
  O  O555  1  0.97629413  0.00597460  0.09728682  1
  C  C556  1  0.77004528  0.07139142  0.21147699  1
  C  C557  1  0.76856485  0.03917742  0.12126559  1
  C  C558  1  0.96414448  0.21133013  0.14733737  1
  H  H559  1  0.78339877  0.02823858  0.38644192  1
  C  C560  1  0.96633335  0.13074930  0.09738207  1
  C  C561  1  0.92845768  0.01747908  0.34646031  1
  C  C562  1  0.97513714  0.01844722  0.41267399  1
  C  C563  1  0.98780071  0.09485734  0.10815801  1
  C  C564  1  0.78953126  0.04704098  0.47044783  1
  C  C565  1  0.90064368  0.17586897  0.00294906  1
  H  H566  1  0.87553286  0.03111963  0.49344293  1
  H  H567  1  0.75613745  0.39350276  0.40149493  1
  O  O568  1  0.94368547  0.41507293  0.43770883  1
  H  H569  1  0.98303851  0.25527242  0.40586255  1
  H  H570  1  0.85471046  0.48047382  0.38058540  1
  H  H571  1  0.88876239  0.32594800  0.06146382  1
  O  O572  1  0.79985445  0.42123738  0.09404219  1
  C  C573  1  0.90065903  0.25297559  0.02478350  1
  C  C574  1  0.96674033  0.32372041  0.46007669  1
  H  H575  1  0.95182653  0.33432021  0.37519022  1
  C  C576  1  0.78712668  0.46200379  0.26387989  1
  O  O577  1  0.87172736  0.43061322  0.19850695  1
  C  C578  1  0.82010503  0.43804349  0.17634769  1
  O  O579  1  0.99192581  0.45961274  0.08069122  1
  C  C580  1  0.93044625  0.33202759  0.08906626  1
  O  O581  1  0.85009593  0.29760562  0.29528515  1
  C  C582  1  0.76458744  0.32700350  0.34161495  1
  H  H583  1  0.92052420  0.39994971  0.04820030  1
  C  C584  1  0.96318325  0.29644134  0.12853981  1
  C  C585  1  0.99541506  0.38432760  0.13673807  1
  C  C586  1  0.82513830  0.32771400  0.33774789  1
  Cu  Cu587  1  0.89629772  0.39571085  0.30752349  1
  C  C588  1  0.80958477  0.48009953  0.36605309  1
  C  C589  1  0.94429366  0.37545567  0.08946806  1
  H  H590  1  0.76791868  0.26203187  0.26939443  1
  C  C591  1  0.94245059  0.25232754  0.10533673  1
  O  O592  1  0.85095283  0.36219571  0.37252282  1
  C  C593  1  0.98291407  0.27943242  0.47957110  1
  C  C594  1  0.92708695  0.10491818  0.65877312  1
  C  C595  1  0.89841613  0.06888601  0.68873114  1
  C  C596  1  0.79677026  0.09480222  0.67962789  1
  H  H597  1  0.79860796  0.11137356  0.76416811  1
  H  H598  1  0.95713000  0.19727297  0.64307597  1
  C  C599  1  0.78437536  0.20050872  0.86834159  1
  C  C600  1  0.96716588  0.03360299  0.78477957  1
  H  H601  1  0.91564147  0.13247683  0.60089220  1
  C  C602  1  0.84053276  0.07139513  0.63740799  1
  C  C603  1  0.91139351  0.03119500  0.75632226  1
  H  H604  1  0.77835724  0.16973285  0.91897288  1
  C  C605  1  0.83197988  0.22457603  0.88226268  1
  C  C606  1  0.98339442  0.10560763  0.68704578  1
  H  H607  1  0.81106237  0.03339197  0.81669328  1
  C  C608  1  0.83972349  0.04746344  0.53068091  1
  C  C609  1  0.87723914  0.21586299  0.97240584  1
  C  C610  1  0.99805860  0.18801087  0.63364892  1
  H  H611  1  0.88714728  0.14495375  0.96291806  1
  C  C612  1  0.99989665  0.06976241  0.74826960  1
  C  C613  1  0.82383164  0.00087880  0.77183653  1
  H  H614  1  0.81004685  0.00168632  0.68199253  1
  C  C615  1  0.95501463  0.39988711  0.53640448  1
  C  C616  1  0.79934867  0.32895003  0.73222452  1
  O  O617  1  0.85685027  0.47502763  0.64549045  1
  C  C618  1  0.79010301  0.28049204  0.76384255  1
  C  C619  1  0.77293840  0.35480413  0.81233393  1
  C  C620  1  0.82787762  0.46037538  0.72676383  1
  H  H621  1  0.98974264  0.36448030  0.73001607  1
  H  H622  1  0.86728895  0.40323894  0.57967072  1
  O  O623  1  0.96096056  0.42384279  0.62578369  1
  C  C624  1  0.98829649  0.33767847  0.66314160  1
  C  C625  1  0.96823586  0.35318066  0.55212120  1
  Cu  Cu626  1  0.93791919  0.48002746  0.67219260  1
  C  C627  1  0.83521454  0.34428657  0.64237407  1
  H  H628  1  0.87037490  0.28554357  0.83311493  1
  H  H629  1  0.77215073  0.41986521  0.89430023  1
  C  C630  1  0.83430464  0.26555459  0.82392840  1
  H  H631  1  0.85553131  0.32113386  0.57510112  1
  C  C632  1  0.78370283  0.39885186  0.82469299  1
  O  O633  1  0.80210144  0.48595466  0.79542964  1
  C  C634  1  0.83949291  0.38871075  0.64196747  1
  C  C635  1  0.81508656  0.41397822  0.73129296  1
  H  H636  1  0.88888317  0.28352133  0.98397184  1
  C  C637  1  0.89696455  0.61808875  0.26905127  1
  C  C638  1  0.84672400  0.60020173  0.25151317  1
  H  H639  1  0.84830066  0.56688759  0.21294007  1
  C  C640  1  0.79872498  0.62264021  0.27193663  1
  C  C641  1  0.94589877  0.58995908  0.24070949  1
  O  O642  1  0.94078110  0.54890552  0.21480977  1
  H  H643  1  0.88882258  0.65805690  0.09470631  1
  C  C644  1  0.80486548  0.66220283  0.33324814  1
  C  C645  1  0.90100079  0.65915770  0.31986256  1
  C  C646  1  0.85583547  0.68179214  0.35519699  1
  H  H647  1  0.93936000  0.67375545  0.33921439  1
  H  H648  1  0.86160779  0.71290964  0.39813145  1
  O  O649  1  0.98835572  0.60793820  0.25003916  1
  Cu  Cu650  1  0.98528400  0.51585284  0.12797706  1
  H  H651  1  0.79236671  0.71285179  0.15661156  1
  H  H652  1  0.98993974  0.68601827  0.09999138  1
  H  H653  1  0.89654863  0.57936502  0.03126380  1
  C  C654  1  0.78686451  0.74546107  0.20438444  1
  H  H655  1  0.82284614  0.74751547  0.26606094  1
  H  H656  1  0.76153370  0.60693232  0.25199553  1
  C  C657  1  0.90129064  0.64973708  0.00451961  1
  H  H658  1  0.75789565  0.61694364  0.47361585  1
  C  C659  1  0.77647937  0.50341801  0.44190096  1
  C  C660  1  0.92987620  0.75890017  0.02284462  1
  H  H661  1  0.79402578  0.96159713  0.48600622  1
  C  C662  1  0.90304165  0.79933319  0.03638121  1
  C  C663  1  0.97199835  0.92605021  0.10454297  1
  C  C664  1  0.99696076  0.97814255  0.47228877  1
  H  H665  1  0.92932126  0.93012583  0.43331289  1
  C  C666  1  0.86513670  0.82248715  0.37642857  1
  O  O667  1  0.97933715  0.75349850  0.05976834  1
  C  C668  1  0.92108428  0.93957700  0.33884636  1
  H  H669  1  0.84582089  0.87675677  0.11099820  1
  C  C670  1  0.76651884  0.91290563  0.35781991  1
  O  O671  1  0.87624798  0.78690968  0.34281773  1
  H  H672  1  0.89939364  0.91223353  0.29620543  1
  C  C673  1  0.92333655  0.84242088  0.08280866  1
  O  O674  1  0.89836998  0.98006546  0.31532607  1
  H  H675  1  0.78953676  0.77284075  0.13738257  1
  H  H676  1  0.89233363  0.94950835  0.10969133  1
  H  H677  1  0.78075628  0.87965324  0.32984667  1
  C  C678  1  0.91696144  0.92137234  0.10753756  1
  C  C679  1  0.98095828  0.84680580  0.08704934  1
  C  C680  1  0.89223434  0.88047307  0.09796836  1
  H  H681  1  0.96160844  0.93907817  0.29110817  1
  C  C682  1  0.84563899  0.90358638  0.47457780  1
  C  C683  1  0.80281376  0.93079013  0.44080727  1
  C  C684  1  0.85348565  0.86342101  0.41953868  1
  H  H685  1  0.83370778  0.84427690  0.00169965  1
  H  H686  1  0.81195543  0.99284727  0.00781246  1
  C  C687  1  0.90977163  0.55038217  0.81375361  1
  O  O688  1  0.92562406  0.53856660  0.71406347  1
  C  C689  1  0.91319390  0.59591153  0.84995619  1
  C  C690  1  0.92315509  0.62897563  0.76643661  1
  C  C691  1  0.92336525  0.67185297  0.80610956  1
  H  H692  1  0.93024540  0.70082078  0.74834326  1
  C  C693  1  0.90972512  0.68296702  0.92421341  1
  O  O694  1  0.88901515  0.52490579  0.88849429  1
  H  H695  1  0.81811808  0.71043381  0.89117573  1
  Cu  Cu696  1  0.81663930  0.53326748  0.89157991  1
  H  H697  1  0.92692180  0.62360913  0.67118459  1
  H  H698  1  0.79502880  0.52162318  0.51076856  1
  C  C699  1  0.90522567  0.60719479  0.96945887  1
  C  C700  1  0.84260502  0.73726569  0.92562965  1
  C  C701  1  0.89586147  0.73014085  0.96165048  1
  O  O702  1  0.76173075  0.62517161  0.94477669  1
  C  C703  1  0.97140405  0.96423556  0.57951566  1
  H  H704  1  0.87303326  0.91511397  0.54114354  1
  C  C705  1  0.85227781  0.81156248  0.99694335  1
  O  O706  1  0.99561958  0.83540981  0.69208569  1
  O  O707  1  0.88003701  0.99748663  0.78941813  1
  H  H708  1  0.93359934  0.95852407  0.89377323  1
  C  C709  1  0.76606294  0.78821562  0.88863905  1
  H  H710  1  0.98027381  0.89062511  0.90285205  1
  C  C711  1  0.75986008  0.82936786  0.82818087  1
  C  C712  1  0.82233163  0.77938311  0.94014975  1
  H  H713  1  0.94846627  0.98950529  0.62093437  1
  H  H714  1  0.80489969  0.97304623  0.81952562  1
  H  H715  1  0.79136850  0.85259411  0.82040229  1
  H  H716  1  0.95567533  0.90967614  0.70655422  1
  C  C717  1  0.97722615  0.95852454  0.87109443  1
  C  C718  1  0.97807536  0.92249237  0.62370462  1
  H  H719  1  0.75101769  0.89312158  0.55638665  1
