# generated using pymatgen
data_CuH13C21O5
_symmetry_space_group_name_H-M   'P 1'
_cell_length_a   33.42951256
_cell_length_b   31.71639229
_cell_length_c   8.72395682
_cell_angle_alpha   90.00000000
_cell_angle_beta   90.00000000
_cell_angle_gamma   90.00000000
_symmetry_Int_Tables_number   1
_chemical_formula_structural   CuH13C21O5
_chemical_formula_sum   'Cu18 H234 C378 O90'
_cell_volume   9249.69329137
_cell_formula_units_Z   18
loop_
 _symmetry_equiv_pos_site_id
 _symmetry_equiv_pos_as_xyz
  1  'x, y, z'
loop_
 _atom_site_type_symbol
 _atom_site_label
 _atom_site_symmetry_multiplicity
 _atom_site_fract_x
 _atom_site_fract_y
 _atom_site_fract_z
 _atom_site_occupancy
  H  H0  1  0.22682135  0.23242042  0.56094766  1
  C  C1  1  0.21982689  0.18327463  0.24455089  1
  C  C2  1  0.21288759  0.22822285  0.24633991  1
  C  C3  1  0.20748264  0.11087550  0.33550804  1
  C  C4  1  0.19825459  0.24721617  0.52742093  1
  C  C5  1  0.18476226  0.24531257  0.37004502  1
  H  H6  1  0.19510562  0.04778703  0.87839140  1
  C  C7  1  0.22456822  0.03560588  0.90142436  1
  O  O8  1  0.19918606  0.15752784  0.33111210  1
  H  H9  1  0.21287553  0.11231173  0.99694167  1
  H  H10  1  0.19803534  0.09406803  0.22354152  1
  C  C11  1  0.24221065  0.09981842  0.02088049  1
  H  H12  1  0.19556486  0.09546601  0.43940196  1
  O  O13  1  0.03915187  0.09106692  0.04934003  1
  H  H14  1  0.01632836  0.00774379  0.85462627  1
  H  H15  1  0.04920581  0.06127511  0.40755349  1
  H  H16  1  0.24051780  0.10926858  0.33516663  1
  C  C17  1  0.00809428  0.09206336  0.11390400  1
  C  C18  1  0.03428711  0.04700991  0.51096133  1
  C  C19  1  0.01802581  0.02949558  0.61629628  1
  H  H20  1  0.10210659  0.30121403  0.05049360  1
  C  C21  1  0.14744216  0.26572389  0.33095631  1
  O  O22  1  0.21591549  0.36788361  0.87377328  1
  Cu  Cu23  1  0.04148421  0.34420411  0.81073664  1
  C  C24  1  0.08323613  0.31949803  0.13144085  1
  C  C25  1  0.13927950  0.28638367  0.60079342  1
  C  C26  1  0.12560287  0.28664948  0.44484432  1
  C  C27  1  0.13846051  0.37259676  0.17906843  1
  C  C28  1  0.11457221  0.30497503  0.71196952  1
  O  O29  1  0.03046154  0.47412231  0.33860772  1
  O  O30  1  0.15245624  0.40419178  0.23060123  1
  C  C31  1  0.04438570  0.30864537  0.17623508  1
  H  H32  1  0.13554410  0.26222081  0.21805131  1
  O  O33  1  0.03045198  0.45158029  0.57823257  1
  C  C34  1  0.22892650  0.44739696  0.92820612  1
  Cu  Cu35  1  0.17164989  0.33947530  0.88726899  1
  O  O36  1  0.12681265  0.30828700  0.85023815  1
  C  C37  1  0.07143970  0.38043624  0.30522107  1
  O  O38  1  0.16316967  0.34485850  0.10544169  1
  C  C39  1  0.09539499  0.35764344  0.20104204  1
  H  H40  1  0.09650759  0.30222396  0.41600348  1
  O  O41  1  0.01001325  0.36311329  0.96233046  1
  H  H42  1  0.21744642  0.42382251  0.00765201  1
  C  C43  1  0.03652531  0.48014527  0.47051326  1
  O  O44  1  0.08203412  0.32343571  0.67325417  1
  C  C45  1  0.23249924  0.38893553  0.75015771  1
  C  C46  1  0.23061749  0.25772179  0.15494279  1
  H  H47  1  0.08347232  0.40986635  0.34990403  1
  C  C48  1  0.03265355  0.36880387  0.34358250  1
  H  H49  1  0.22368073  0.29376347  0.15316151  1
  C  C50  1  0.23757798  0.43612039  0.77166731  1
  H  H51  1  0.02695013  0.28075052  0.13316029  1
  O  O52  1  0.03325088  0.42594142  0.03228942  1
  C  C53  1  0.00647842  0.40267564  0.01053434  1
  O  O54  1  0.00225705  0.36028469  0.65576269  1
  C  C55  1  0.01752435  0.33132329  0.27412718  1
  H  H56  1  0.01573547  0.39258646  0.40501256  1
  O  O57  1  0.24640694  0.37146678  0.64172040  1
  H  H58  1  0.18709789  0.26696588  0.75359507  1
  C  C59  1  0.24933433  0.46328409  0.65477192  1
  C  C60  1  0.23570127  0.48851963  0.97799900  1
  C  C61  1  0.17609435  0.26699938  0.63863071  1
  Cu  Cu62  1  0.16318867  0.68021262  0.46243623  1
  H  H63  1  0.04260474  0.71732388  0.40549933  1
  C  C64  1  0.14934779  0.62133396  0.73578403  1
  O  O65  1  0.05570671  0.68509842  0.68277058  1
  C  C66  1  0.15808501  0.69058582  0.84657627  1
  H  H67  1  0.16261134  0.58920405  0.71221630  1
  C  C68  1  0.17427403  0.64903165  0.82324500  1
  C  C69  1  0.08059760  0.56558356  0.72726704  1
  C  C70  1  0.12086007  0.69955274  0.79472807  1
  C  C71  1  0.11121946  0.63427378  0.68612277  1
  H  H72  1  0.19378794  0.56268501  0.79976528  1
  C  C73  1  0.08993221  0.59587034  0.61370214  1
  C  C74  1  0.24922100  0.51587159  0.85922114  1
  H  H75  1  0.08528234  0.61530591  0.37019454  1
  H  H76  1  0.02745777  0.62373333  0.72290366  1
  C  C77  1  0.08049293  0.59067943  0.45493307  1
  O  O78  1  0.20276618  0.59439296  0.22891106  1
  C  C79  1  0.21652723  0.58222990  0.85510212  1
  C  C80  1  0.09202405  0.67308383  0.71403810  1
  H  H81  1  0.05524280  0.54861390  0.28823994  1
  H  H82  1  0.03738173  0.63950665  0.53061392  1
  C  C83  1  0.05551282  0.52173683  0.51846703  1
  C  C84  1  0.06065505  0.52914590  0.67756450  1
  C  C85  1  0.02656992  0.65220798  0.64376881  1
  C  C86  1  0.21195235  0.62680035  0.87093790  1
  O  O87  1  0.11941205  0.71483563  0.38450872  1
  H  H88  1  0.24377204  0.68449135  0.93416226  1
  O  O89  1  0.18646394  0.62600828  0.44506116  1
  C  C90  1  0.21311103  0.61057586  0.34448015  1
  C  C91  1  0.24409383  0.64957111  0.93370559  1
  C  C92  1  0.06318601  0.55325235  0.40584247  1
  H  H93  1  0.08658085  0.57206267  0.84972198  1
  H  H94  1  0.17585548  0.71726395  0.88890498  1
  C  C95  1  0.10628864  0.74457413  0.83375240  1
  H  H96  1  0.23356627  0.63518344  0.61566531  1
  O  O97  1  0.21251465  0.70682299  0.48816166  1
  H  H98  1  0.11418381  0.73674586  0.09613660  1
  C  C99  1  0.22886640  0.73115971  0.39087499  1
  O  O100  1  0.21382873  0.73271312  0.25618777  1
  O  O101  1  0.01063729  0.52497354  0.95433815  1
  H  H102  1  0.05389364  0.50467424  0.76148811  1
  H  H103  1  0.23333297  0.50325772  0.09868492  1
  O  O104  1  0.23408620  0.92587853  0.82440614  1
  O  O105  1  0.14746552  0.77809482  0.35898206  1
  Cu  Cu106  1  0.18394213  0.77767866  0.19005158  1
  C  C107  1  0.00647509  0.81779070  0.39678012  1
  C  C108  1  0.07871104  0.77543020  0.38200877  1
  C  C109  1  0.11328788  0.80163443  0.01005251  1
  O  O110  1  0.14794327  0.87706062  0.02089043  1
  O  O111  1  0.22680172  0.86175101  0.04787670  1
  Cu  Cu112  1  0.19311748  0.90093779  0.92735325  1
  O  O113  1  0.11038055  0.90105870  0.82767470  1
  H  H114  1  0.08897682  0.83743573  0.63472523  1
  C  C115  1  0.12050151  0.87239257  0.90857333  1
  C  C116  1  0.09471763  0.81608495  0.73008166  1
  C  C117  1  0.10822793  0.82688143  0.87680871  1
  C  C118  1  0.04380204  0.84163877  0.39270140  1
  H  H119  1  0.10862559  0.83712203  0.37199161  1
  C  C120  1  0.07925758  0.82041158  0.38369193  1
  H  H121  1  0.04386395  0.87510170  0.38358581  1
  O  O122  1  0.21178973  0.79469300  0.02383306  1
  H  H123  1  0.12332878  0.81665603  0.12149918  1
  C  C124  1  0.00748079  0.77219168  0.41035716  1
  C  C125  1  0.23748972  0.82397569  0.02041123  1
  C  C126  1  0.11259804  0.75770751  0.99204385  1
  C  C127  1  0.09376989  0.77172995  0.71460609  1
  H  H128  1  0.00593789  0.79502128  0.88171822  1
  H  H129  1  0.04173419  0.75780583  0.96631096  1
  H  H130  1  0.00845630  0.90687971  0.42931735  1
  H  H131  1  0.08923553  0.75810992  0.60247583  1
  C  C132  1  0.24666159  0.96435323  0.79733891  1
  C  C133  1  0.01055827  0.76591536  0.95468449  1
  C  C134  1  0.23523342  0.99645545  0.84947015  1
  C  C135  1  0.11853884  0.75493733  0.37435966  1
  C  C136  1  0.04335435  0.75181809  0.39964694  1
  H  H137  1  0.42912699  0.05296688  0.41383007  1
  O  O138  1  0.34765891  0.08262875  0.64854572  1
  O  O139  1  0.38515500  0.11256307  0.29300294  1
  C  C140  1  0.31782344  0.10264976  0.59204889  1
  C  C141  1  0.32157817  0.14840066  0.56294448  1
  C  C142  1  0.37467991  0.03875680  0.28967218  1
  C  C143  1  0.28890235  0.21511665  0.48035586  1
  H  H144  1  0.32201687  0.14375065  0.22572891  1
  C  C145  1  0.26637375  0.13005897  0.10662253  1
  C  C146  1  0.28989094  0.17130515  0.49057951  1
  C  C147  1  0.30460375  0.11845698  0.16427090  1
  C  C148  1  0.36912402  0.08288790  0.25245926  1
  O  O149  1  0.32679769  0.08471095  0.15449623  1
  Cu  Cu150  1  0.27668807  0.02966480  0.59514121  1
  Cu  Cu151  1  0.35041120  0.03622675  0.77016524  1
  C  C152  1  0.31995972  0.23528204  0.56968278  1
  O  O153  1  0.28744200  0.08275588  0.54963363  1
  H  H154  1  0.26765281  0.23075233  0.40930947  1
  C  C155  1  0.40802645  0.02854776  0.37827283  1
  C  C156  1  0.35554861  0.21306169  0.61942873  1
  H  H157  1  0.38221373  0.15410507  0.66370175  1
  C  C158  1  0.35548148  0.16925050  0.61765950  1
  H  H159  1  0.29245088  0.18706002  0.94877225  1
  H  H160  1  0.26376469  0.15195700  0.45167164  1
  H  H161  1  0.28057267  0.04411496  0.01251978  1
  H  H162  1  0.37945655  0.23186476  0.68062787  1
  H  H163  1  0.27372349  0.22236709  0.77086423  1
  C  C164  1  0.27060995  0.19985061  0.03179547  1
  C  C165  1  0.25915872  0.24269346  0.04676781  1
  C  C166  1  0.34919926  0.00651988  0.23420623  1
  H  H167  1  0.32290650  0.01541513  0.16326384  1
  C  C168  1  0.25179753  0.05861100  0.99196852  1
  C  C169  1  0.25225139  0.17388181  0.14385886  1
  C  C170  1  0.38034937  0.44133626  0.02828796  1
  C  C171  1  0.33824667  0.37058008  0.89668036  1
  C  C172  1  0.35885208  0.31239441  0.43204261  1
  C  C173  1  0.32016426  0.33112210  0.83835200  1
  C  C174  1  0.39692155  0.41675146  0.90664400  1
  O  O175  1  0.44034874  0.47764285  0.07214249  1
  C  C176  1  0.28753785  0.25289202  0.79195421  1
  C  C177  1  0.37523474  0.38551631  0.83136469  1
  H  H178  1  0.37198400  0.28165785  0.41138464  1
  H  H179  1  0.43000110  0.42370796  0.88461935  1
  H  H180  1  0.28683238  0.39576775  0.03508463  1
  C  C181  1  0.34133975  0.43192405  0.07395337  1
  C  C182  1  0.31188861  0.27176096  0.68279515  1
  O  O183  1  0.35416970  0.33092453  0.59515869  1
  C  C184  1  0.29641382  0.31307973  0.95543406  1
  H  H185  1  0.49087733  0.45581781  0.88522312  1
  C  C186  1  0.28162461  0.27154692  0.93840866  1
  C  C187  1  0.31915625  0.39917274  0.01010348  1
  H  H188  1  0.39098597  0.37184462  0.73233751  1
  H  H189  1  0.29524274  0.32873900  0.06678672  1
  H  H190  1  0.32837165  0.31079988  0.37801208  1
  C  C191  1  0.40484998  0.47123295  0.11848573  1
  C  C192  1  0.33019608  0.31214054  0.69279663  1
  H  H193  1  0.32890575  0.44993581  0.17365917  1
  H  H194  1  0.37681631  0.33242617  0.35493261  1
  C  C195  1  0.49312889  0.48633957  0.82838263  1
  H  H196  1  0.25473600  0.45130449  0.53569820  1
  H  H197  1  0.43024097  0.49860257  0.81009785  1
  H  H198  1  0.35106175  0.48211477  0.52133735  1
  O  O199  1  0.38811283  0.49348088  0.21709477  1
  H  H200  1  0.36184239  0.63647558  0.88147266  1
  H  H201  1  0.46080637  0.70880551  0.58824091  1
  C  C202  1  0.32644364  0.69956887  0.24883889  1
  C  C203  1  0.35315995  0.65286848  0.98919608  1
  H  H204  1  0.29870239  0.50756375  0.02278646  1
  C  C205  1  0.45978411  0.51085492  0.79054613  1
  C  C206  1  0.30009673  0.61874374  0.60625335  1
  H  H207  1  0.31403922  0.71395303  0.35570138  1
  O  O208  1  0.32359049  0.56583872  0.98792918  1
  H  H209  1  0.26572039  0.67599109  0.21288287  1
  C  C210  1  0.41591633  0.66203025  0.72695725  1
  C  C211  1  0.32398376  0.52212374  0.95846143  1
  C  C212  1  0.46312396  0.72039470  0.83695044  1
  C  C213  1  0.32606219  0.58650526  0.37065068  1
  H  H214  1  0.47049133  0.63348773  0.81827202  1
  H  H215  1  0.36099551  0.71971742  0.80176637  1
  H  H216  1  0.49060668  0.70252291  0.82048457  1
  C  C217  1  0.38022839  0.67603889  0.07181262  1
  C  C218  1  0.47138151  0.65670882  0.45062817  1
  C  C219  1  0.39707434  0.72569671  0.28311844  1
  C  C220  1  0.25431765  0.60568101  0.40916314  1
  C  C221  1  0.28586082  0.58862141  0.32380398  1
  H  H222  1  0.33618320  0.53484360  0.61348509  1
  C  C223  1  0.37496834  0.60662591  0.60088211  1
  C  C224  1  0.48164777  0.59853991  0.28024733  1
  O  O225  1  0.42955766  0.73349255  0.23294991  1
  Cu  Cu226  1  0.47617603  0.53132422  0.48417944  1
  C  C227  1  0.33334803  0.60302777  0.51948943  1
  C  C228  1  0.42432410  0.70666869  0.79314371  1
  O  O229  1  0.39313940  0.52608868  0.57705908  1
  H  H230  1  0.33437534  0.72277720  0.01029295  1
  H  H231  1  0.36048449  0.67166233  0.60098092  1
  C  C232  1  0.43365876  0.58608251  0.69882520  1
  C  C233  1  0.46554376  0.55273558  0.74340770  1
  C  C234  1  0.28721001  0.58385900  0.94957835  1
  C  C235  1  0.31125293  0.65508163  0.03515560  1
  C  C236  1  0.39935199  0.57227225  0.62293672  1
  C  C237  1  0.35944589  0.51241369  0.57787312  1
  C  C238  1  0.38156223  0.64930839  0.64655815  1
  C  C239  1  0.36686000  0.69938595  0.19627126  1
  H  H240  1  0.41169824  0.67594365  0.04436432  1
  H  H241  1  0.35140561  0.50598684  0.98316909  1
  H  H242  1  0.44612185  0.63941611  0.50329659  1
  C  C243  1  0.29795299  0.67773816  0.16956912  1
  C  C244  1  0.44234138  0.62751596  0.75723339  1
  H  H245  1  0.35096607  0.57688451  0.29429685  1
  O  O246  1  0.45689866  0.57863762  0.37320995  1
  H  H247  1  0.30626600  0.62754349  0.72814362  1
  H  H248  1  0.28153975  0.57882213  0.20400197  1
  C  C249  1  0.27933868  0.62770642  0.96480895  1
  C  C250  1  0.48052195  0.69724227  0.49606808  1
  Cu  Cu251  1  0.41457658  0.54371663  0.30627306  1
  Cu  Cu252  1  0.46852152  0.52751718  0.11768246  1
  C  C253  1  0.39124903  0.73116062  0.83160633  1
  H  H254  1  0.32156457  0.51514254  0.83299683  1
  O  O255  1  0.38812217  0.74508034  0.43020514  1
  O  O256  1  0.49564707  0.58112238  0.16367741  1
  C  C257  1  0.26060992  0.62142149  0.55739659  1
  H  H258  1  0.26471414  0.53406446  0.63212512  1
  H  H259  1  0.26089315  0.74403423  0.67693835  1
  C  C260  1  0.49247941  0.64030756  0.32655497  1
  C  C261  1  0.25348826  0.56326373  0.89447681  1
  H  H262  1  0.26394608  0.74523170  0.01175858  1
  C  C263  1  0.25491762  0.50551039  0.70071668  1
  C  C264  1  0.42886261  0.89007711  0.46209490  1
  H  H265  1  0.37049439  0.84953362  0.87448361  1
  C  C266  1  0.30609075  0.79122882  0.62239927  1
  H  H267  1  0.26191248  0.91389676  0.50699722  1
  C  C268  1  0.32775710  0.75578349  0.98570639  1
  H  H269  1  0.39662899  0.79131950  0.59970457  1
  C  C270  1  0.43601645  0.78943176  0.95779988  1
  C  C271  1  0.46597230  0.75965526  0.91498242  1
  C  C272  1  0.35905962  0.96578814  0.27018269  1
  C  C273  1  0.28821903  0.76749417  0.99355984  1
  C  C274  1  0.27848698  0.81179580  0.98724912  1
  C  C275  1  0.39595111  0.82510750  0.54849357  1
  C  C276  1  0.28527174  0.88961653  0.51688022  1
  C  C277  1  0.35924597  0.78620250  0.95546189  1
  H  H278  1  0.41474324  0.89816618  0.73446698  1
  C  C279  1  0.42875796  0.91590806  0.82781643  1
  H  H280  1  0.28965436  0.88186054  0.64449695  1
  H  H281  1  0.41069153  0.88123691  0.10151163  1
  C  C282  1  0.46567375  0.96159833  0.07784011  1
  C  C283  1  0.27819170  0.78767398  0.32601944  1
  H  H284  1  0.31758509  0.79094503  0.74075643  1
  C  C285  1  0.43190700  0.84769425  0.50779011  1
  C  C286  1  0.47601423  0.78651993  0.47499184  1
  C  C287  1  0.32331873  0.81913657  0.51613296  1
  C  C288  1  0.35521667  0.88925197  0.46545812  1
  H  H289  1  0.34354623  0.93986087  0.21697474  1
  H  H290  1  0.32782728  0.82741298  0.26576878  1
  H  H291  1  0.30226977  0.87582843  0.97431937  1
  C  C292  1  0.40003631  0.76783753  0.92116564  1
  C  C293  1  0.39060686  0.95455394  0.37229236  1
  C  C294  1  0.34865593  0.82853225  0.92793824  1
  C  C295  1  0.36795743  0.96069670  0.87174936  1
  C  C296  1  0.47395812  0.83007986  0.51647000  1
  O  O297  1  0.31932911  0.90688689  0.43808011  1
  O  O298  1  0.44616518  0.82612522  0.01947709  1
  C  C299  1  0.36085603  0.84604625  0.51462105  1
  H  H300  1  0.39017113  0.83144936  0.14756474  1
  H  H301  1  0.44835524  0.76735263  0.44744529  1
  O  O302  1  0.27113010  0.97673774  0.63949342  1
  H  H303  1  0.44299463  0.97786090  0.48935572  1
  C  C304  1  0.40955734  0.94939633  0.90998935  1
  C  C305  1  0.42771343  0.97259083  0.02928878  1
  O  O306  1  0.35283377  0.93944626  0.76219188  1
  C  C307  1  0.41737099  0.98741307  0.41227656  1
  C  C308  1  0.39115808  0.91014124  0.43447328  1
  C  C309  1  0.30964118  0.84128550  0.96630075  1
  C  C310  1  0.31021461  0.81232079  0.36000469  1
  C  C311  1  0.41917927  0.84697882  0.13123801  1
  H  H312  1  0.45566377  0.90969216  0.42998107  1
  H  H313  1  0.27359869  0.86101344  0.46353809  1
  H  H314  1  0.43637931  0.84861640  0.23811297  1
  Cu  Cu315  1  0.32599705  0.97119455  0.60999665  1
  O  O316  1  0.35044262  0.99437674  0.91529773  1
  H  H317  1  0.26390176  0.78633814  0.20891800  1
  C  C318  1  0.26058260  0.75989228  0.43496612  1
  C  C319  1  0.46556200  0.90569475  0.87913250  1
  H  H320  1  0.48136606  0.97737710  0.17363771  1
  H  H321  1  0.41139105  0.99961395  0.07385333  1
  C  C322  1  0.27660116  0.76139418  0.58635334  1
  H  H323  1  0.48164669  0.88059615  0.82132916  1
  C  C324  1  0.48397692  0.92641856  0.00518528  1
  H  H325  1  0.35963371  0.75148908  0.41147919  1
  C  C326  1  0.61332894  0.14981835  0.81851185  1
  C  C327  1  0.73803752  0.23160770  0.14290891  1
  H  H328  1  0.55295144  0.04839272  0.18547880  1
  C  C329  1  0.64312336  0.22816223  0.64975654  1
  H  H330  1  0.64511938  0.20662575  0.55389826  1
  C  C331  1  0.67324429  0.00798996  0.63077639  1
  H  H332  1  0.61907513  0.17624305  0.90306488  1
  C  C333  1  0.71803564  0.16330772  0.26197256  1
  C  C334  1  0.71228659  0.06789780  0.73111965  1
  C  C335  1  0.68325506  0.14050652  0.78485655  1
  C  C336  1  0.67709401  0.04976762  0.66028006  1
  O  O337  1  0.74567433  0.04224595  0.32462826  1
  C  C338  1  0.69371640  0.18426338  0.79221060  1
  O  O339  1  0.64673361  0.12263198  0.80020520  1
  C  C340  1  0.73266075  0.22533221  0.42468551  1
  C  C341  1  0.66574618  0.22306900  0.78209620  1
  H  H342  1  0.58390143  0.13490024  0.85118974  1
  H  H343  1  0.65098935  0.06944415  0.62606047  1
  C  C344  1  0.71583613  0.11455334  0.75607871  1
  H  H345  1  0.60678812  0.16548156  0.70336510  1
  O  O346  1  0.71139371  0.14186279  0.37637491  1
  O  O347  1  0.71426685  0.14856560  0.12433445  1
  C  C348  1  0.73119664  0.03651913  0.19381291  1
  H  H349  1  0.72764046  0.20588068  0.52647349  1
  C  C350  1  0.72964589  0.20767997  0.27464020  1
  H  H351  1  0.68545251  0.02615829  0.93451374  1
  H  H352  1  0.67819573  0.24255321  0.01812497  1
  C  C353  1  0.69603227  0.00911508  0.17743446  1
  C  C354  1  0.73236209  0.20042928  0.77976563  1
  C  C355  1  0.56580679  0.01456510  0.15387281  1
  H  H356  1  0.59555032  0.01685490  0.09395050  1
  C  C357  1  0.74463224  0.04148672  0.77206899  1
  O  O358  1  0.74498410  0.05681366  0.07847578  1
  Cu  Cu359  1  0.74606877  0.09529608  0.42116954  1
  C  C360  1  0.67589714  0.00718914  0.03599673  1
  H  H361  1  0.73839356  0.21728760  0.02846544  1
  H  H362  1  0.73839573  0.23501318  0.78134608  1
  C  C363  1  0.66184157  0.24986590  0.91363371  1
  H  H364  1  0.63111050  0.30486108  0.00336250  1
  C  C365  1  0.67985762  0.34682067  0.31164365  1
  C  C366  1  0.67581050  0.39040239  0.28541327  1
  H  H367  1  0.73137001  0.39428725  0.99281480  1
  C  C368  1  0.62754044  0.44561516  0.17536646  1
  Cu  Cu369  1  0.60275026  0.40191532  0.90626073  1
  C  C370  1  0.61308992  0.29193228  0.77179110  1
  C  C371  1  0.73260126  0.41221554  0.60544747  1
  C  C372  1  0.52539258  0.48067413  0.30390001  1
  C  C373  1  0.74514535  0.39724471  0.87843909  1
  H  H374  1  0.64918567  0.45486870  0.08542257  1
  C  C375  1  0.65638887  0.27777527  0.37697144  1
  C  C376  1  0.71890568  0.40268322  0.75311883  1
  H  H377  1  0.59740281  0.27161775  0.54852306  1
  O  O378  1  0.56185078  0.33621902  0.65765152  1
  H  H379  1  0.69625161  0.45384961  0.25268730  1
  O  O380  1  0.60110954  0.49430584  0.77934141  1
  O  O381  1  0.65589547  0.41628885  0.63863131  1
  H  H382  1  0.73795207  0.49647912  0.22347880  1
  Cu  Cu383  1  0.63823628  0.47167135  0.64670765  1
  C  C384  1  0.61748427  0.26480310  0.64258682  1
  H  H385  1  0.61107524  0.37153831  0.46268689  1
  C  C386  1  0.56292250  0.45637493  0.30045111  1
  C  C387  1  0.60423817  0.40077795  0.39381567  1
  H  H388  1  0.54606367  0.41552280  0.49525659  1
  H  H389  1  0.71111129  0.41758044  0.50476022  1
  C  C390  1  0.67460543  0.40364934  0.75573389  1
  C  C391  1  0.56973166  0.42405566  0.40957783  1
  H  H392  1  0.68036034  0.26102948  0.31272471  1
  C  C393  1  0.59119521  0.46546777  0.18704848  1
  O  O394  1  0.56611068  0.44012952  0.85902407  1
  H  H395  1  0.63136278  0.25476687  0.37892341  1
  O  O396  1  0.65603564  0.39588249  0.87669926  1
  C  C397  1  0.63627281  0.41372797  0.29123290  1
  C  C398  1  0.70580025  0.41999463  0.25888197  1
  C  C399  1  0.56782037  0.47716352  0.80760842  1
  C  C400  1  0.58031997  0.32673947  0.76882813  1
  O  O401  1  0.58213836  0.35132939  0.89176506  1
  O  O402  1  0.64884615  0.32085314  0.33340702  1
  C  C403  1  0.72146694  0.33847772  0.29771255  1
  C  C404  1  0.63536481  0.28328774  0.90226553  1
  H  H405  1  0.66706108  0.27964992  0.49496787  1
  H  H406  1  0.73553331  0.28531314  0.54726264  1
  H  H407  1  0.74483098  0.29424352  0.05209637  1
  C  C408  1  0.73895143  0.27490705  0.15186268  1
  C  C409  1  0.73733278  0.29365810  0.30152329  1
  C  C410  1  0.73653801  0.26812532  0.43938436  1
  O  O411  1  0.50292570  0.48227259  0.42348203  1
  C  C412  1  0.74772059  0.40899782  0.25362616  1
  O  O413  1  0.71724496  0.49823414  0.47571956  1
  H  H414  1  0.58539462  0.48945866  0.10307771  1
  C  C415  1  0.74928144  0.57685721  0.49973466  1
  C  C416  1  0.72492936  0.55955344  0.61513319  1
  C  C417  1  0.72524708  0.62738958  0.74482984  1
  C  C418  1  0.51134542  0.72255342  0.43587528  1
  C  C419  1  0.50489173  0.57220637  0.73239661  1
  C  C420  1  0.73904580  0.63871151  0.08802564  1
  H  H421  1  0.68030086  0.65799053  0.60876974  1
  O  O422  1  0.69635101  0.71689041  0.54034620  1
  C  C423  1  0.73279080  0.72423437  0.59401076  1
  O  O424  1  0.69182078  0.69174422  0.14672017  1
  H  H425  1  0.68717528  0.61339849  0.19835969  1
  H  H426  1  0.56812178  0.55348680  0.70715120  1
  C  C427  1  0.71750803  0.60637892  0.15841945  1
  H  H428  1  0.71616399  0.64470552  0.84633751  1
  H  H429  1  0.65010800  0.67338615  0.45330546  1
  C  C430  1  0.68123629  0.67778648  0.50329360  1
  C  C431  1  0.71239298  0.58494561  0.73826843  1
  H  H432  1  0.53728949  0.64934293  0.14267508  1
  C  C433  1  0.72337012  0.68246335  0.07596249  1
  H  H434  1  0.70425758  0.65936123  0.43022680  1
  C  C435  1  0.70922490  0.51603649  0.58779719  1
  H  H436  1  0.69332466  0.56970425  0.82020017  1
  C  C437  1  0.53344471  0.70089226  0.31494261  1
  C  C438  1  0.53733268  0.54402033  0.74282115  1
  C  C439  1  0.52200832  0.66341808  0.24633651  1
  H  H440  1  0.56050544  0.71546885  0.27389302  1
  O  O441  1  0.73944774  0.70769315  0.98357037  1
  H  H442  1  0.71434680  0.54265792  0.21827717  1
  C  C443  1  0.73351856  0.56608167  0.15815894  1
  C  C444  1  0.53117765  0.50269599  0.79806206  1
  O  O445  1  0.68281432  0.50126058  0.69829264  1
  H  H446  1  0.50773762  0.60434880  0.69162533  1
  C  C447  1  0.74906194  0.64420423  0.62769286  1
  O  O448  1  0.51692229  0.50392260  0.19247001  1
  Cu  Cu449  1  0.69086170  0.74464979  0.22510243  1
  C  C450  1  0.55351916  0.78791741  0.48047432  1
  C  C451  1  0.68252497  0.98616443  0.30888025  1
  O  O452  1  0.74118697  0.79417978  0.01163539  1
  H  H453  1  0.50654746  0.88111943  0.61719708  1
  H  H454  1  0.64360230  0.99404855  0.59130302  1
  C  C455  1  0.57119435  0.86351783  0.10378493  1
  H  H456  1  0.68414181  0.85153730  0.53545932  1
  C  C457  1  0.55589734  0.94389781  0.07468083  1
  O  O458  1  0.58731589  0.76902325  0.47228582  1
  C  C459  1  0.59101116  0.89374739  0.68710463  1
  H  H460  1  0.62220580  0.79582049  0.64954004  1
  C  C461  1  0.59266144  0.92980180  0.12877674  1
  C  C462  1  0.50952547  0.85003507  0.56352937  1
  O  O463  1  0.67237096  0.92087924  0.57779634  1
  C  C464  1  0.72803958  0.80361361  0.61039832  1
  O  O465  1  0.64549151  0.77325151  0.15971973  1
  H  H466  1  0.63205191  0.86966884  0.18142456  1
  C  C467  1  0.60073813  0.85564058  0.76030297  1
  C  C468  1  0.52629371  0.91435115  0.04867592  1
  C  C469  1  0.60246413  0.88415890  0.15763922  1
  H  H470  1  0.59330458  0.84210627  0.87408384  1
  C  C471  1  0.73181570  0.87206574  0.70290478  1
  C  C472  1  0.57950464  0.85389205  0.61795919  1
  H  H473  1  0.62929591  0.82278040  0.47961933  1
  C  C474  1  0.53357140  0.86915547  0.04790956  1
  O  O475  1  0.54662364  0.98801280  0.05524119  1
  C  C476  1  0.62807110  0.95769898  0.15097199  1
  C  C477  1  0.59165662  0.76619143  0.99765317  1
  O  O478  1  0.50743560  0.94607360  0.40595901  1
  O  O479  1  0.72413269  0.79204331  0.25587022  1
  C  C480  1  0.64723117  0.96393982  0.29951535  1
  C  C481  1  0.62473038  0.79145115  0.52310359  1
  C  C482  1  0.69738024  0.93712639  0.65084676  1
  C  C483  1  0.54657287  0.82906626  0.54711720  1
  C  C484  1  0.64466909  0.97866453  0.02115583  1
  C  C485  1  0.63483500  0.77082778  0.01849624  1
  H  H486  1  0.57233851  0.91992251  0.72727075  1
  C  C487  1  0.56567763  0.77588641  0.11988532  1
  H  H488  1  0.57874473  0.78391525  0.23627244  1
  C  C489  1  0.70421556  0.98220398  0.68507754  1
  H  H490  1  0.63398082  0.94832634  0.39560828  1
  H  H491  1  0.63128358  0.97605628  0.90729941  1
  C  C492  1  0.71090195  0.84459161  0.60061524  1
  C  C493  1  0.52536465  0.77666364  0.09384009  1
  C  C494  1  0.74917045  0.80115821  0.14959349  1
  H  H495  1  0.65510572  0.77337062  0.51076942  1
  C  C496  1  0.51433428  0.76939085  0.45647300  1
  H  H497  1  0.51591762  0.84218096  0.99611249  1
  O  O498  1  0.65774396  0.76832530  0.90562631  1
  C  C499  1  0.50977469  0.76738755  0.94667870  1
  Cu  Cu500  1  0.70835632  0.75297470  0.92455081  1
  O  O501  1  0.73086667  0.91057751  0.73498395  1
  C  C502  1  0.52388066  0.96780455  0.49357192  1
  H  H503  1  0.50524473  0.78297675  0.18860481  1
  O  O504  1  0.54098744  0.98791275  0.58246638  1
  H  H505  1  0.52585635  0.75465766  0.69902956  1
  C  C506  1  0.57782666  0.75913596  0.84779810  1
  C  C507  1  0.53692040  0.75994895  0.81866861  1
  H  H508  1  0.57018737  0.99436804  0.26495191  1
  C  C509  1  0.74022843  0.99817064  0.75115538  1
  H  H510  1  0.69671040  0.98813611  0.41800616  1
  H  H511  1  0.59983655  0.75210808  0.75256935  1
  C  C512  1  0.84271138  0.18905514  0.41116959  1
  O  O513  1  0.93625536  0.18170078  0.86985081  1
  C  C514  1  0.76512546  0.17340652  0.76796984  1
  C  C515  1  0.86556698  0.22548740  0.42751667  1
  C  C516  1  0.95684564  0.14053065  0.84775750  1
  C  C517  1  0.83667387  0.17095046  0.26097764  1
  H  H518  1  0.94580002  0.07076985  0.49678650  1
  H  H519  1  0.95724443  0.13328117  0.72174951  1
  H  H520  1  0.82634510  0.17409489  0.51131006  1
  H  H521  1  0.82141468  0.11162354  0.68185918  1
  C  C522  1  0.93949407  0.10973077  0.27493262  1
  C  C523  1  0.80989539  0.17529282  0.75393656  1
  H  H524  1  0.77726160  0.10624349  0.72272810  1
  H  H525  1  0.86913163  0.23790303  0.53493585  1
  H  H526  1  0.93678682  0.20766377  0.08116746  1
  C  C527  1  0.81263644  0.13256263  0.24711697  1
  C  C528  1  0.87587746  0.14859807  0.75633265  1
  H  H529  1  0.77382469  0.05547152  0.81625704  1
  H  H530  1  0.85483451  0.17442814  0.01893119  1
  O  O531  1  0.79851549  0.11501737  0.36559884  1
  C  C532  1  0.82904037  0.21547624  0.77954202  1
  C  C533  1  0.83515803  0.14003286  0.72786213  1
  C  C534  1  0.85585846  0.18934932  0.13571109  1
  C  C535  1  0.89285830  0.07253503  0.72526878  1
  O  O536  1  0.90301804  0.03730822  0.66694384  1
  H  H537  1  0.91871799  0.12935751  0.21277592  1
  C  C538  1  0.90996383  0.12632177  0.51810145  1
  H  H539  1  0.96840846  0.02848546  0.76827491  1
  C  C540  1  0.87101839  0.21761730  0.81013559  1
  C  C541  1  0.89760096  0.18302306  0.83001103  1
  O  O542  1  0.80266169  0.12018774  0.11504452  1
  C  C543  1  0.89832053  0.11360023  0.67153099  1
  H  H544  1  0.89847740  0.15547679  0.46400594  1
  H  H545  1  0.97732944  0.18002943  0.16782522  1
  C  C546  1  0.93465019  0.09985922  0.43978257  1
  H  H547  1  0.81165012  0.24594911  0.78176598  1
  H  H548  1  0.87863860  0.06948850  0.83668553  1
  C  C549  1  0.95821537  0.20847532  0.18691545  1
  H  H550  1  0.93824551  0.20204298  0.30042512  1
  C  C551  1  0.75421660  0.12985944  0.75073079  1
  H  H552  1  0.93758517  0.22393153  0.64988576  1
  C  C553  1  0.97289496  0.09915191  0.19370127  1
  H  H554  1  0.89255494  0.24203316  0.04382541  1
  H  H555  1  0.94823929  0.11431120  0.92148490  1
  H  H556  1  0.98973418  0.14645275  0.87998766  1
  C  C557  1  0.87919521  0.22622334  0.14812907  1
  C  C558  1  0.88627347  0.24323127  0.29621006  1
  O  O559  1  0.97765348  0.24663942  0.20839107  1
  Cu  Cu560  1  0.75185186  0.11417585  0.04356830  1
  C  C561  1  0.99665807  0.01118621  0.74809928  1
  H  H562  1  0.84875702  0.35563580  0.61428133  1
  H  H563  1  0.78500572  0.42645987  0.47332987  1
  C  C564  1  0.83782103  0.42118207  0.61470843  1
  C  C565  1  0.85973538  0.38624292  0.57301456  1
  H  H566  1  0.98187568  0.48142813  0.13845570  1
  C  C567  1  0.76775491  0.48395744  0.19638330  1
  C  C568  1  0.89489486  0.31319510  0.37239576  1
  O  O569  1  0.95319953  0.40225020  0.71685593  1
  C  C570  1  0.95324218  0.29056104  0.65282992  1
  C  C571  1  0.89425943  0.25783684  0.77584281  1
  C  C572  1  0.90282224  0.43034714  0.43511179  1
  C  C573  1  0.89206676  0.38898026  0.46776282  1
  C  C574  1  0.95712304  0.45836677  0.11197918  1
  H  H575  1  0.78517986  0.35319872  0.26595310  1
  H  H576  1  0.92775312  0.43488333  0.34931394  1
  C  C577  1  0.93376912  0.38949716  0.04439345  1
  C  C578  1  0.89462028  0.40376754  0.07641948  1
  C  C579  1  0.95385569  0.35503829  0.34134175  1
  C  C580  1  0.84937633  0.46441500  0.59022578  1
  C  C581  1  0.88518265  0.44659529  0.10763605  1
  C  C582  1  0.80053977  0.40777974  0.70693743  1
  C  C583  1  0.75428032  0.36592194  0.27107000  1
  H  H584  1  0.82919098  0.39890419  0.20890680  1
  C  C585  1  0.97396432  0.31962568  0.29046487  1
  C  C586  1  0.93943240  0.32855611  0.71879619  1
  H  H587  1  0.97088824  0.38580003  0.35029221  1
  H  H588  1  0.86435224  0.31012110  0.40237205  1
  H  H589  1  0.86996897  0.38081496  0.09077108  1
  H  H590  1  0.89787719  0.48289985  0.91984662  1
  C  C591  1  0.78675992  0.39944174  0.85762751  1
  C  C592  1  0.91348790  0.35233683  0.38625386  1
  C  C593  1  0.77847657  0.44198839  0.21757979  1
  H  H594  1  0.93772977  0.35771947  0.01088007  1
  C  C595  1  0.91567276  0.27927501  0.31062284  1
  C  C596  1  0.77364422  0.41675104  0.58884156  1
  C  C597  1  0.96495851  0.41810955  0.05068877  1
  C  C598  1  0.95686023  0.27954617  0.27091933  1
  C  C599  1  0.90267693  0.33520467  0.79370521  1
  H  H600  1  0.85191545  0.30186780  0.88150565  1
  C  C601  1  0.81812917  0.43056389  0.18251483  1
  C  C602  1  0.88034083  0.29877351  0.82050206  1
  C  C603  1  0.91878844  0.47263777  0.14402094  1
  C  C604  1  0.84327359  0.46206051  0.12563853  1
  C  C605  1  0.96662728  0.36523314  0.68922226  1
  H  H606  1  0.89305403  0.36725127  0.83014690  1
  H  H607  1  0.80701366  0.39474477  0.96204701  1
  C  C608  1  0.88169192  0.46591991  0.48752438  1
  Cu  Cu609  1  0.98930416  0.44787201  0.71798664  1
  H  H610  1  0.80534072  0.47449851  0.84719083  1
  H  H611  1  0.77045535  0.47403332  0.68999638  1
  C  C612  1  0.93067978  0.25541597  0.69381319  1
  H  H613  1  0.98346820  0.28874421  0.58977178  1
  C  C614  1  0.79580318  0.49380168  0.74158188  1
  O  O615  1  0.96854402  0.49851620  0.78241500  1
  O  O616  1  0.83086612  0.49819066  0.64088823  1
  H  H617  1  0.96293803  0.48406201  0.43168950  1
  H  H618  1  0.82224170  0.66926040  0.66255200  1
  C  C619  1  0.95806141  0.55013272  0.38511732  1
  C  C620  1  0.88961875  0.58246880  0.36452112  1
  C  C621  1  0.77279748  0.55640022  0.11087855  1
  C  C622  1  0.93670648  0.58124282  0.73389029  1
  C  C623  1  0.96493364  0.57162500  0.85081195  1
  O  O624  1  0.98096721  0.72733221  0.90574585  1
  C  C625  1  0.98475804  0.52978744  0.86295283  1
  C  C626  1  0.92081985  0.69710271  0.80269787  1
  C  C627  1  0.96171518  0.64314613  0.94048031  1
  C  C628  1  0.87230198  0.54318232  0.40871319  1
  C  C629  1  0.79338292  0.59019551  0.03675291  1
  H  H630  1  0.79775112  0.65192913  0.96900447  1
  C  C631  1  0.75981349  0.61908259  0.49739696  1
  C  C632  1  0.86252253  0.73906153  0.71971188  1
  O  O633  1  0.86029707  0.53146070  0.02991170  1
  C  C634  1  0.91992349  0.62081939  0.71522282  1
  H  H635  1  0.82602400  0.58940608  0.99948809  1
  H  H636  1  0.87991456  0.52598670  0.81127157  1
  H  H637  1  0.78390876  0.52547552  0.77984128  1
  C  C638  1  0.76038702  0.69135033  0.62311835  1
  C  C639  1  0.93581677  0.65386069  0.81587913  1
  O  O640  1  0.98610660  0.63974257  0.32445311  1
  C  C641  1  0.88243846  0.70120896  0.73672668  1
  C  C642  1  0.95004715  0.63163764  0.33605691  1
  H  H643  1  0.86980693  0.60729134  0.35720115  1
  C  C644  1  0.81729621  0.73791498  0.67248124  1
  H  H645  1  0.92724196  0.55713961  0.65071288  1
  H  H646  1  0.86486402  0.67243896  0.71354116  1
  H  H647  1  0.96953794  0.66936923  0.02214354  1
  C  C648  1  0.80253002  0.69652670  0.65022172  1
  H  H649  1  0.89765298  0.62719596  0.62605535  1
  O  O650  1  0.92352480  0.65924107  0.33332691  1
  C  C651  1  0.93243496  0.58527557  0.36155205  1
  C  C652  1  0.77670956  0.62925144  0.02234141  1
  C  C653  1  0.94157437  0.51079460  0.41410321  1
  C  C654  1  0.94576842  0.73190125  0.85085077  1
  H  H655  1  0.89489386  0.73232784  0.31125705  1
  C  C656  1  0.83240971  0.50430625  0.09436727  1
  C  C657  1  0.89083194  0.51808207  0.92504004  1
  C  C658  1  0.97751466  0.60220971  0.95515127  1
  H  H659  1  0.99124633  0.55272527  0.37449785  1
  H  H660  1  0.84060149  0.53703745  0.42869707  1
  C  C661  1  0.79257898  0.51369172  0.12856456  1
  H  H662  1  0.99589899  0.66232021  0.62943868  1
  C  C663  1  0.89888890  0.50854188  0.43715386  1
  H  H664  1  0.91554623  0.50465398  0.18685894  1
  H  H665  1  0.92129142  0.53265708  0.94530414  1
  H  H666  1  0.99873188  0.59208517  0.04449940  1
  H  H667  1  0.77500948  0.63409851  0.40082722  1
  H  H668  1  0.76130440  0.55755719  0.40697213  1
  H  H669  1  0.94607848  0.81202825  0.10466844  1
  C  C670  1  0.88467178  0.99457730  0.74218032  1
  C  C671  1  0.79620948  0.82431178  0.34587766  1
  C  C672  1  0.94319136  0.81435414  0.85535489  1
  C  C673  1  0.88949720  0.95741876  0.64839958  1
  H  H674  1  0.76301231  0.97646931  0.79077649  1
  C  C675  1  0.96852346  0.89664381  0.88448057  1
  H  H676  1  0.87984692  0.92536472  0.30379728  1
  C  C677  1  0.79315959  0.77357028  0.66227454  1
  H  H678  1  0.87519669  0.80865029  0.73382197  1
  C  C679  1  0.87108585  0.92108383  0.68080784  1
  O  O680  1  0.93281424  0.78675617  0.33363711  1
  C  C681  1  0.98024030  0.89107574  0.38433720  1
  C  C682  1  0.94797337  0.83093505  0.00515277  1
  C  C683  1  0.90588578  0.90275405  0.32172255  1
  C  C684  1  0.88624484  0.77506526  0.75471571  1
  C  C685  1  0.93469707  0.83023693  0.33707109  1
  C  C686  1  0.83206716  0.84121158  0.38680341  1
  C  C687  1  0.85224382  0.88323277  0.71566806  1
  H  H688  1  0.80666002  0.80430668  0.67472665  1
  C  C689  1  0.85189626  0.84668637  0.10370293  1
  C  C690  1  0.92477697  0.77104669  0.81854819  1
  C  C691  1  0.86023049  0.84817879  0.26508795  1
  H  H692  1  0.87458372  0.85508929  0.01294079  1
  C  C693  1  0.95307303  0.83866051  0.72744130  1
  C  C694  1  0.97299648  0.84603695  0.37413158  1
  C  C695  1  0.81405374  0.82937987  0.07212612  1
  C  C696  1  0.90309447  0.85794456  0.30639186  1
  O  O697  1  0.83476290  0.85162012  0.74914452  1
  C  C698  1  0.78776788  0.81875105  0.19103660  1
  C  C699  1  0.94503883  0.91249224  0.35382016  1
  C  C700  1  0.96149838  0.87276812  0.01783490  1
  H  H701  1  0.94795621  0.82462427  0.61470974  1
  H  H702  1  0.86915181  0.77280359  0.38900579  1
  H  H703  1  0.90845773  0.95974391  0.54814719  1
  H  H704  1  0.83775582  0.84793872  0.50831345  1
  C  C705  1  0.96683956  0.87922256  0.73586815  1
  H  H706  1  0.96581675  0.88627040  0.13568269  1
  H  H707  1  0.80424957  0.82980177  0.95080839  1
  C  C708  1  0.89455412  0.76664167  0.30527870  1
  H  H709  1  0.97750263  0.89750926  0.63923358  1
  H  H710  1  0.75694650  0.85616640  0.76609749  1
  H  H711  1  0.77312386  0.82072850  0.43098105  1
  H  H712  1  0.88431872  0.77694148  0.18563031  1
  C  C713  1  0.97756286  0.94223708  0.87659772  1
  O  O714  1  0.86754743  0.99847801  0.85868414  1
  O  O715  1  0.98646916  0.96026376  0.74391641  1
  H  H716  1  0.99936916  0.77226760  0.07231564  1
  C  C717  1  0.75123168  0.76679995  0.62668367  1
  O  O718  1  0.97419365  0.96109447  0.99503188  1
  H  H719  1  0.98052400  0.75523916  0.44709254  1
