# generated using pymatgen
data_CuH13C21O5
_symmetry_space_group_name_H-M   'P 1'
_cell_length_a   30.89284906
_cell_length_b   22.64829358
_cell_length_c   12.49958867
_cell_angle_alpha   90.00000000
_cell_angle_beta   90.00000000
_cell_angle_gamma   90.00000000
_symmetry_Int_Tables_number   1
_chemical_formula_structural   CuH13C21O5
_chemical_formula_sum   'Cu18 H234 C378 O90'
_cell_volume   8745.59114118
_cell_formula_units_Z   18
loop_
 _symmetry_equiv_pos_site_id
 _symmetry_equiv_pos_as_xyz
  1  'x, y, z'
loop_
 _atom_site_type_symbol
 _atom_site_label
 _atom_site_symmetry_multiplicity
 _atom_site_fract_x
 _atom_site_fract_y
 _atom_site_fract_z
 _atom_site_occupancy
  C  C0  1  0.14127658  0.13419436  0.10336104  1
  C  C1  1  0.21768972  0.14462829  0.12788274  1
  C  C2  1  0.17280210  0.49005222  0.48386835  1
  C  C3  1  0.13520084  0.13108885  0.21641339  1
  H  H4  1  0.23728532  0.15421010  0.29552155  1
  C  C5  1  0.17092713  0.13885433  0.28883249  1
  C  C6  1  0.20995542  0.14656460  0.23974217  1
  H  H7  1  0.24479119  0.32572821  0.44663340  1
  C  C8  1  0.09372875  0.13114248  0.27018931  1
  O  O9  1  0.05952897  0.13664340  0.21289681  1
  H  H10  1  0.05729633  0.00817312  0.18912027  1
  H  H11  1  0.15841827  0.03098961  0.25771535  1
  H  H12  1  0.00583567  0.02800955  0.22167875  1
  O  O13  1  0.01666705  0.04928994  0.07185837  1
  C  C14  1  0.07418741  0.27239159  0.38782039  1
  O  O15  1  0.05355015  0.27074421  0.29840193  1
  O  O16  1  0.06609481  0.23970371  0.46636247  1
  H  H17  1  0.16684977  0.13527459  0.37575957  1
  C  C18  1  0.08246566  0.31130773  0.03723579  1
  C  C19  1  0.12029892  0.35215840  0.30982408  1
  H  H20  1  0.11378509  0.13818901  0.05359146  1
  C  C21  1  0.20129678  0.44129014  0.47973079  1
  H  H22  1  0.09835318  0.35638797  0.23949276  1
  Cu  Cu23  1  0.03259196  0.20838207  0.22391288  1
  C  C24  1  0.11124310  0.30883165  0.38936021  1
  O  O25  1  0.08961810  0.12852829  0.37142462  1
  C  C26  1  0.15380613  0.39285135  0.32807108  1
  H  H27  1  0.16234612  0.43000262  0.27151207  1
  Cu  Cu28  1  0.04851488  0.16319534  0.46370657  1
  H  H29  1  0.14072825  0.49051787  0.44327175  1
  H  H30  1  0.12546706  0.02578012  0.06883955  1
  C  C31  1  0.17676505  0.39181525  0.42782035  1
  O  O32  1  0.07475201  0.35963508  0.05913773  1
  H  H33  1  0.16066899  0.34517019  0.10788413  1
  C  C34  1  0.18149188  0.14034697  0.05834633  1
  C  C35  1  0.05013082  0.26239343  0.02941478  1
  C  C36  1  0.02361363  0.00898543  0.15281332  1
  C  C37  1  0.10890666  0.00665553  0.37771361  1
  C  C38  1  0.13096382  0.00060965  0.28586430  1
  C  C39  1  0.16110385  0.32395161  0.02747751  1
  H  H40  1  0.00011174  0.32159588  0.09994805  1
  C  C41  1  0.00851900  0.27514001  0.06572681  1
  C  C42  1  0.23713704  0.17403937  0.47785696  1
  C  C43  1  0.24231952  0.10917570  0.46787146  1
  H  H44  1  0.19000864  0.29545534  0.02649784  1
  C  C45  1  0.03539905  0.16072740  0.00262641  1
  C  C46  1  0.13796655  0.30383801  0.48317956  1
  C  C47  1  0.07497681  0.15479021  0.73842579  1
  C  C48  1  0.05630687  0.10498160  0.79077058  1
  C  C49  1  0.12349167  0.16082215  0.72329798  1
  O  O50  1  0.14764668  0.12333235  0.75409500  1
  O  O51  1  0.13632398  0.20719637  0.67062470  1
  C  C52  1  0.21678285  0.07114639  0.53538236  1
  Cu  Cu53  1  0.19284455  0.23345005  0.65887809  1
  H  H54  1  0.18963850  0.09111948  0.58092686  1
  O  O55  1  0.19997136  0.18667223  0.53555181  1
  H  H56  1  0.12955411  0.26755074  0.54005241  1
  O  O57  1  0.09701830  0.41792098  0.63711443  1
  H  H58  1  0.04601715  0.11581780  0.97502300  1
  C  C59  1  0.05085245  0.20132048  0.69396998  1
  H  H60  1  0.06561356  0.23847996  0.65008844  1
  H  H61  1  0.06980030  0.33939819  0.76323857  1
  H  H62  1  0.18510090  0.00518824  0.91464755  1
  H  H63  1  0.18764747  0.34129392  0.58161278  1
  C  C64  1  0.06806644  0.45415040  0.68008698  1
  Cu  Cu65  1  0.14493104  0.39893222  0.70596720  1
  C  C66  1  0.00143823  0.46425021  0.78085867  1
  O  O67  1  0.19447786  0.37676515  0.76827617  1
  O  O68  1  0.18770339  0.28051997  0.77407266  1
  C  C69  1  0.04217567  0.36760871  0.79144617  1
  C  C70  1  0.20886309  0.32483238  0.79467859  1
  H  H71  1  0.07640953  0.06787024  0.82053805  1
  C  C72  1  0.16939427  0.34467467  0.50632341  1
  H  H73  1  0.18593820  0.14722184  0.96969616  1
  C  C74  1  0.22707780  0.01099895  0.53804167  1
  C  C75  1  0.03547318  0.42480545  0.75432780  1
  H  H76  1  0.09841996  0.19775945  0.97075462  1
  C  C77  1  0.24575307  0.44156564  0.51702969  1
  C  C78  1  0.00991260  0.10189251  0.79636913  1
  C  C79  1  0.00554559  0.19872510  0.70574387  1
  C  C80  1  0.00922469  0.34877526  0.85640414  1
  H  H81  1  0.00645327  0.30112768  0.88377895  1
  C  C82  1  0.06434003  0.20642556  0.99580656  1
  O  O83  1  0.12500432  0.29038414  0.99780995  1
  H  H84  1  0.06301425  0.00180269  0.50891273  1
  H  H85  1  0.16795771  0.36273312  0.97496473  1
  H  H86  1  0.13381947  0.67157263  0.20963685  1
  C  C87  1  0.16167033  0.70024532  0.21840751  1
  H  H88  1  0.14369604  0.81826517  0.39531735  1
  C  C89  1  0.18320859  0.71170216  0.12283674  1
  C  C90  1  0.11030563  0.79995148  0.38158810  1
  C  C91  1  0.17729819  0.64239429  0.43706180  1
  C  C92  1  0.06092867  0.93307216  0.37226273  1
  H  H93  1  0.20468088  0.62923534  0.38277808  1
  H  H94  1  0.07961400  0.89021580  0.05259312  1
  C  C95  1  0.16419901  0.88442659  0.13653178  1
  H  H96  1  0.05467171  0.81634713  0.07294466  1
  C  C97  1  0.07403527  0.85288799  0.11216528  1
  H  H98  1  0.10677239  0.83324186  0.11946715  1
  O  O99  1  0.05851270  0.86966935  0.21655034  1
  C  C100  1  0.17367136  0.72431640  0.31937006  1
  C  C101  1  0.11228181  0.94859053  0.23273274  1
  H  H102  1  0.17125514  0.69283795  0.04531220  1
  H  H103  1  0.08889376  0.83855277  0.36004430  1
  C  C104  1  0.14491887  0.98565185  0.05810920  1
  C  C105  1  0.20884235  0.76361814  0.32306741  1
  O  O106  1  0.20265571  0.87056418  0.46373411  1
  H  H107  1  0.15605248  0.84876067  0.19285279  1
  C  C108  1  0.19447993  0.87596268  0.05828664  1
  C  C109  1  0.07673843  0.91454369  0.27088604  1
  C  C110  1  0.14093392  0.94032617  0.13400461  1
  C  C111  1  0.07708287  0.98144601  0.43688452  1
  C  C112  1  0.15350804  0.69428227  0.41876242  1
  H  H113  1  0.15293910  0.91277486  0.35398612  1
  C  C114  1  0.22203406  0.74730196  0.13394918  1
  C  C115  1  0.18461466  0.92130467  0.39108828  1
  C  C116  1  0.23236389  0.77525553  0.22850706  1
  C  C117  1  0.11607006  0.71245056  0.47640853  1
  H  H118  1  0.11524885  0.77777124  0.30568919  1
  H  H119  1  0.01025735  0.96298022  0.13912184  1
  H  H120  1  0.18520327  0.96733964  0.42452907  1
  H  H121  1  0.21605720  0.78578833  0.40069057  1
  C  C122  1  0.02277405  0.90555419  0.42726380  1
  H  H123  1  0.21305021  0.83487091  0.05598986  1
  H  H124  1  0.20872032  0.92090587  0.32349384  1
  O  O125  1  0.09456652  0.76348961  0.46868393  1
  H  H126  1  0.10738279  0.57438572  0.61085395  1
  C  C127  1  0.06429302  0.67296077  0.61636318  1
  H  H128  1  0.01977430  0.60961945  0.83708919  1
  O  O129  1  0.01764654  0.75224150  0.96507968  1
  C  C130  1  0.06402494  0.64213999  0.71756852  1
  C  C131  1  0.12295941  0.61184398  0.56371757  1
  C  C132  1  0.23073673  0.54491902  0.57943300  1
  O  O133  1  0.14891383  0.64302530  0.86259485  1
  H  H134  1  0.16839732  0.81441651  0.60713034  1
  C  C135  1  0.04957826  0.91653349  0.81259758  1
  C  C136  1  0.23474540  0.90960187  0.90483992  1
  O  O137  1  0.21719454  0.61533087  0.87684557  1
  H  H138  1  0.21342007  0.98204800  0.60001774  1
  O  O139  1  0.05931132  0.94980649  0.75807380  1
  C  C140  1  0.02940237  0.70883424  0.58271044  1
  H  H141  1  0.13423012  0.73339543  0.71241769  1
  C  C142  1  0.19026136  0.54271756  0.52943660  1
  H  H143  1  0.09414267  0.62484172  0.75457846  1
  C  C144  1  0.10418173  0.66622444  0.54744846  1
  C  C145  1  0.18515957  0.64608273  0.83085356  1
  C  C146  1  0.23500714  0.77703427  0.60627408  1
  C  C147  1  0.16999945  0.73231657  0.69381034  1
  C  C148  1  0.18871280  0.77587231  0.63319778  1
  C  C149  1  0.19885365  0.69013084  0.74685113  1
  C  C150  1  0.02040012  0.90184609  0.54227542  1
  H  H151  1  0.04634068  0.92344243  0.58986985  1
  C  C152  1  0.02338407  0.63945850  0.77016558  1
  C  C153  1  0.20131588  0.92284291  0.98370517  1
  C  C154  1  0.24091739  0.87685964  0.50543672  1
  Cu  Cu155  1  0.24319798  0.63854930  0.99850787  1
  H  H156  1  0.24067207  0.58631102  0.61973874  1
  C  C157  1  0.17738712  0.97621816  0.97974453  1
  C  C158  1  0.24065610  0.68507235  0.71151198  1
  O  O159  1  0.07250655  0.50666979  0.66828713  1
  O  O160  1  0.24545043  0.72190831  0.96103616  1
  O  O161  1  0.24454180  0.95203714  0.84053701  1
  H  H162  1  0.00159637  0.84808023  0.91181959  1
  H  H163  1  0.00381588  0.50999520  0.75021675  1
  H  H164  1  0.03139742  0.73329113  0.50407691  1
  C  C165  1  0.16433761  0.59959702  0.51457317  1
  H  H166  1  0.40833810  0.18495798  0.28381895  1
  H  H167  1  0.32094515  0.37069395  0.05070831  1
  H  H168  1  0.38972905  0.28081814  0.05319056  1
  H  H169  1  0.31628552  0.29843592  0.11856458  1
  O  O170  1  0.45096423  0.49343682  0.11481228  1
  C  C171  1  0.29298562  0.45331103  0.09381340  1
  C  C172  1  0.33539336  0.39967031  0.22053894  1
  C  C173  1  0.35618943  0.15328226  0.04185725  1
  C  C174  1  0.33915388  0.18669108  0.12813677  1
  C  C175  1  0.34079036  0.29360748  0.17882344  1
  C  C176  1  0.33030648  0.44339364  0.30243034  1
  C  C177  1  0.38994637  0.22636194  0.27457963  1
  C  C178  1  0.35920457  0.23713302  0.19583702  1
  C  C179  1  0.31847407  0.40498757  0.11362067  1
  H  H180  1  0.47969228  0.21418460  0.34675261  1
  C  C181  1  0.30717875  0.49319024  0.27517871  1
  H  H182  1  0.27872175  0.20330136  0.22592329  1
  C  C183  1  0.39892369  0.27687172  0.33760403  1
  C  C184  1  0.38957841  0.33744389  0.31755711  1
  H  H185  1  0.31223409  0.00691644  0.34828518  1
  O  O186  1  0.40161955  0.38411138  0.37201763  1
  C  C187  1  0.35744340  0.33995004  0.23623596  1
  C  C188  1  0.43657023  0.37972414  0.46010156  1
  H  H189  1  0.34398491  0.43539653  0.38229617  1
  O  O190  1  0.49509599  0.10134926  0.33637108  1
  O  O191  1  0.25702459  0.21503241  0.44250647  1
  C  C192  1  0.29507982  0.18060205  0.15855376  1
  H  H193  1  0.45478532  0.05387715  0.14003935  1
  O  O194  1  0.45683841  0.09013407  0.18187108  1
  C  C195  1  0.42514977  0.25983994  0.43695749  1
  C  C196  1  0.46039095  0.21828741  0.42533624  1
  H  H197  1  0.44860616  0.42559608  0.48329202  1
  H  H198  1  0.29362300  0.11687823  0.34949305  1
  C  C199  1  0.48907158  0.07105235  0.25957964  1
  C  C200  1  0.28459352  0.02358267  0.39458186  1
  H  H201  1  0.46603924  0.36060017  0.42008121  1
  C  C202  1  0.27433958  0.08407273  0.39950562  1
  C  C203  1  0.26561601  0.14762282  0.09433546  1
  H  H204  1  0.25281536  0.38714846  0.35572987  1
  H  H205  1  0.29353267  0.33661200  0.37830995  1
  H  H206  1  0.38981723  0.14473892  0.03161972  1
  C  C207  1  0.26667395  0.35860262  0.41909221  1
  H  H208  1  0.27725349  0.45686094  0.01422098  1
  O  O209  1  0.27678548  0.40314918  0.49922169  1
  H  H210  1  0.49191854  0.14076730  0.49776205  1
  H  H211  1  0.38948727  0.08877772  0.83078461  1
  O  O212  1  0.45975824  0.15899072  0.79386718  1
  H  H213  1  0.33337733  0.22298691  0.91160085  1
  Cu  Cu214  1  0.46477215  0.45980968  0.98163710  1
  H  H215  1  0.34327725  0.37792139  0.60653572  1
  C  C216  1  0.35748286  0.06935122  0.81251176  1
  C  C217  1  0.47044580  0.17949295  0.51128074  1
  C  C218  1  0.35248188  0.36926884  0.69208304  1
  C  C219  1  0.45105940  0.18867708  0.61056887  1
  O  O220  1  0.39868768  0.36055601  0.70224533  1
  C  C221  1  0.48230332  0.32071073  0.90962099  1
  C  C222  1  0.40557626  0.26794383  0.54444525  1
  H  H223  1  0.25623783  0.41449123  0.83414375  1
  H  H224  1  0.33744224  0.41765104  0.90000732  1
  C  C225  1  0.27610890  0.37661410  0.85066088  1
  C  C226  1  0.31660427  0.26402528  0.89001710  1
  H  H227  1  0.40308396  0.23237519  0.71208316  1
  C  C228  1  0.45792884  0.14386758  0.70301811  1
  C  C229  1  0.41879769  0.22966497  0.63133757  1
  C  C230  1  0.28129373  0.07302828  0.84236719  1
  O  O231  1  0.25225383  0.09107559  0.90441661  1
  C  C232  1  0.32319495  0.08778047  0.87504510  1
  H  H233  1  0.34308233  0.40938506  0.74000343  1
  C  C234  1  0.38861785  0.32060827  0.88679052  1
  H  H235  1  0.32891365  0.33497195  0.71294502  1
  C  C236  1  0.49915858  0.31029427  0.65997240  1
  C  C237  1  0.45306792  0.30103340  0.98013314  1
  C  C238  1  0.41297595  0.33944521  0.79764502  1
  O  O239  1  0.46509960  0.08704545  0.67399966  1
  C  C240  1  0.27338475  0.26662749  0.86126152  1
  C  C241  1  0.33981551  0.32000056  0.89395850  1
  C  C242  1  0.31883920  0.37682135  0.88730127  1
  C  C243  1  0.45801963  0.34020820  0.81623310  1
  H  H244  1  0.49906018  0.45616681  0.74149769  1
  H  H245  1  0.27275407  0.04948152  0.76943042  1
  H  H246  1  0.25489825  0.22514808  0.85678919  1
  C  C247  1  0.48847961  0.35919522  0.72794616  1
  C  C248  1  0.32305992  0.12458577  0.97997857  1
  C  C249  1  0.25309899  0.32217252  0.83605443  1
  H  H250  1  0.42877693  0.35210285  0.53246694  1
  C  C251  1  0.27898781  0.12491817  0.99535523  1
  H  H252  1  0.37946891  0.29926809  0.55935737  1
  C  C253  1  0.46773367  0.04003179  0.76474763  1
  C  C254  1  0.33873411  0.49929149  0.58743195  1
  O  O255  1  0.40764227  0.48152302  0.93533957  1
  C  C256  1  0.25495538  0.49275699  0.58314126  1
  H  H257  1  0.38374339  0.01593765  0.68432694  1
  C  C258  1  0.35556594  0.01958512  0.74074738  1
  H  H259  1  0.48656881  0.06870548  0.82320383  1
  C  C260  1  0.29734839  0.49651426  0.64398470  1
  H  H261  1  0.40764738  0.49031976  0.61798107  1
  H  H262  1  0.48950331  0.26585743  0.68313111  1
  C  C263  1  0.36996314  0.49811136  0.76613946  1
  C  C264  1  0.37497233  0.49545139  0.65393873  1
  C  C265  1  0.40784314  0.29963201  0.98559123  1
  C  C266  1  0.40655892  0.63929258  0.34424901  1
  C  C267  1  0.38552873  0.68200571  0.40715052  1
  Cu  Cu268  1  0.39654791  0.51905229  0.06763461  1
  C  C269  1  0.45140673  0.63502189  0.35285045  1
  H  H270  1  0.41891602  0.83926932  0.39593722  1
  H  H271  1  0.30184635  0.52728926  0.33575952  1
  O  O272  1  0.33040632  0.85606450  0.24053753  1
  C  C273  1  0.45697605  0.78375862  0.08446371  1
  H  H274  1  0.47900713  0.98917726  0.09720111  1
  O  O275  1  0.32091200  0.73625404  0.42630237  1
  O  O276  1  0.35789837  0.85345407  0.05715241  1
  C  C277  1  0.36255160  0.63452967  0.04292966  1
  C  C278  1  0.40665568  0.72563443  0.47216802  1
  O  O279  1  0.31706473  0.65109848  0.34117332  1
  C  C280  1  0.47619229  0.52401145  0.17049541  1
  H  H281  1  0.44591703  0.73808642  0.07079801  1
  Cu  Cu282  1  0.29931186  0.65560774  0.20089273  1
  H  H283  1  0.46560346  0.89741552  0.19131341  1
  C  C284  1  0.44553424  0.85869972  0.34861740  1
  C  C285  1  0.33836799  0.68997179  0.39334004  1
  C  C286  1  0.36404931  0.85793944  0.16904329  1
  C  C287  1  0.39986936  0.86660570  0.19944391  1
  C  C288  1  0.47302693  0.67496531  0.41989120  1
  C  C289  1  0.44066257  0.87585813  0.23722143  1
  Cu  Cu290  1  0.32491994  0.79699213  0.33029466  1
  H  H291  1  0.38930488  0.61277954  0.28588683  1
  O  O292  1  0.25949409  0.59242830  0.20807424  1
  C  C293  1  0.26559287  0.55303625  0.13919425  1
  H  H294  1  0.36952270  0.75195270  0.06548843  1
  C  C295  1  0.45075192  0.72126266  0.47735033  1
  O  O296  1  0.28598944  0.78240982  0.05393809  1
  C  C297  1  0.48867600  0.58327758  0.13778444  1
  H  H298  1  0.46825195  0.60343706  0.30001229  1
  H  H299  1  0.42581227  0.81104671  0.09026534  1
  O  O300  1  0.35298886  0.65855772  0.12927982  1
  O  O301  1  0.35898474  0.57844117  0.03236150  1
  C  C302  1  0.48734525  0.86748533  0.38705509  1
  O  O303  1  0.47948249  0.81468611  0.00125955  1
  H  H304  1  0.26041617  0.80364095  0.22714632  1
  C  C305  1  0.46705851  0.61556550  0.05881766  1
  H  H306  1  0.47675601  0.78854439  0.16231933  1
  C  C307  1  0.25153862  0.75496089  0.04211457  1
  O  O308  1  0.25084365  0.56109205  0.04426943  1
  C  C309  1  0.29007532  0.50010164  0.16968606  1
  O  O310  1  0.49247717  0.50329072  0.25678246  1
  H  H311  1  0.43863424  0.59597862  0.02306522  1
  C  C312  1  0.48358147  0.66535823  0.00793055  1
  C  C313  1  0.27276081  0.92421989  0.49312456  1
  H  H314  1  0.41698058  0.90861997  0.47901800  1
  C  C315  1  0.25959521  0.98648920  0.46541016  1
  C  C316  1  0.49272064  0.85765035  0.49749181  1
  H  H317  1  0.37868529  0.60798351  0.83970871  1
  C  C318  1  0.38718500  0.65263966  0.86365585  1
  O  O319  1  0.44173544  0.52770859  0.80293954  1
  H  H320  1  0.27645175  0.90339670  0.73878423  1
  C  C321  1  0.45985750  0.80041007  0.65608606  1
  C  C322  1  0.44127551  0.92933368  0.80514031  1
  H  H323  1  0.38590966  0.76031122  0.50687571  1
  H  H324  1  0.46321506  0.84087908  0.84838345  1
  C  C325  1  0.45577631  0.84412319  0.57234651  1
  C  C326  1  0.45565820  0.98860195  0.78418580  1
  C  C327  1  0.40439308  0.68830889  0.78240158  1
  C  C328  1  0.38354198  0.82317243  0.69560220  1
  C  C329  1  0.48307083  0.59007719  0.58716598  1
  H  H330  1  0.40726956  0.91990627  0.80310444  1
  H  H331  1  0.34078337  0.50343247  0.50301080  1
  C  C332  1  0.47325812  0.88567845  0.82460711  1
  C  C333  1  0.40836019  0.50813066  0.83771022  1
  C  C334  1  0.41810299  0.87582395  0.54333151  1
  C  C335  1  0.32085691  0.97928233  0.74487411  1
  H  H336  1  0.41211822  0.67452931  0.70444701  1
  C  C337  1  0.25894084  0.72651434  0.63705132  1
  C  C338  1  0.30205070  0.82841213  0.59884578  1
  C  C339  1  0.33418435  0.86703734  0.56338481  1
  H  H340  1  0.29209779  0.71913016  0.61085174  1
  O  O341  1  0.49632859  0.77037595  0.66607273  1
  H  H342  1  0.32680320  0.51252738  0.90255153  1
  H  H343  1  0.40134108  0.82231052  0.92761298  1
  C  C344  1  0.38057158  0.85822532  0.59844677  1
  C  C345  1  0.28839129  0.94888420  0.76109173  1
  C  C346  1  0.42179973  0.79134123  0.71809323  1
  O  O347  1  0.25378505  0.86038132  0.90656375  1
  C  C348  1  0.40903162  0.74931498  0.80842541  1
  H  H349  1  0.35400788  0.80961239  0.74357650  1
  C  C350  1  0.37737131  0.67672696  0.96117628  1
  H  H351  1  0.31746098  0.79174125  0.64022240  1
  C  C352  1  0.39638404  0.77446557  0.90955968  1
  H  H353  1  0.46432770  0.68250936  0.93935678  1
  H  H354  1  0.47264234  0.56314136  0.65619539  1
  C  C355  1  0.25850473  0.83064155  0.56681036  1
  H  H356  1  0.47040860  0.63587450  0.59419065  1
  C  C357  1  0.29283940  0.50221405  0.75464645  1
  H  H358  1  0.47100575  0.75060968  0.51796017  1
  H  H359  1  0.34054049  0.95484264  0.50403373  1
  H  H360  1  0.49323539  0.74314987  0.82640216  1
  H  H361  1  0.47985504  0.68311650  0.73400497  1
  C  C362  1  0.32941516  0.50584681  0.81798529  1
  H  H363  1  0.26088096  0.64707543  0.73633183  1
  C  C364  1  0.49940032  0.72484151  0.74605052  1
  C  C365  1  0.31780738  0.91858778  0.51366962  1
  H  H366  1  0.25945461  0.50727162  0.79508638  1
  H  H367  1  0.46692869  0.57149274  0.51444393  1
  Cu  Cu368  1  0.30537630  0.85331426  0.98812621  1
  C  C369  1  0.37813213  0.73590357  0.98471920  1
  C  C370  1  0.68000168  0.13860981  0.11919790  1
  O  O371  1  0.55336517  0.43730328  0.38022406  1
  O  O372  1  0.70061645  0.03053006  0.25843657  1
  H  H373  1  0.59919802  0.31835949  0.12371799  1
  H  H374  1  0.70132119  0.12341149  0.18624123  1
  C  C375  1  0.66414930  0.05165365  0.29390991  1
  C  C376  1  0.55285471  0.38283348  0.42185608  1
  O  O377  1  0.56013250  0.34074169  0.36729970  1
  H  H378  1  0.64728309  0.25395374  0.02277866  1
  C  C379  1  0.71363315  0.29578030  0.18504793  1
  C  C380  1  0.71089427  0.10284951  0.42972301  1
  C  C381  1  0.66868798  0.09263418  0.39161287  1
  C  C382  1  0.71025419  0.27951951  0.29553954  1
  O  O383  1  0.53530188  0.39356539  0.13572138  1
  C  C384  1  0.59968818  0.32423436  0.03439387  1
  O  O385  1  0.63022559  0.04670432  0.25220348  1
  C  C386  1  0.68847208  0.31748909  0.37093017  1
  Cu  Cu387  1  0.53389874  0.44552925  0.24691607  1
  C  C388  1  0.73604252  0.25702346  0.12121396  1
  C  C389  1  0.63156441  0.11913714  0.43619466  1
  H  H390  1  0.55504373  0.03575841  0.37803113  1
  C  C391  1  0.74237901  0.13196631  0.01465965  1
  O  O392  1  0.67495294  0.36682752  0.32964125  1
  H  H393  1  0.64393450  0.14238316  0.13933905  1
  C  C394  1  0.73118809  0.22999155  0.33645695  1
  H  H395  1  0.73007771  0.22024028  0.42350524  1
  H  H396  1  0.73794951  0.07954344  0.38759707  1
  H  H397  1  0.69948562  0.33716973  0.15470497  1
  H  H398  1  0.59854940  0.11062541  0.40003277  1
  O  O399  1  0.68069399  0.30723301  0.46750364  1
  C  C400  1  0.51381978  0.01644699  0.23528868  1
  H  H401  1  0.73783929  0.26379037  0.03148769  1
  Cu  Cu402  1  0.67607659  0.44450529  0.37462283  1
  C  C403  1  0.54357630  0.40385164  0.03860305  1
  O  O404  1  0.69298848  0.14141268  0.03081236  1
  O  O405  1  0.67160574  0.49617592  0.26010435  1
  C  C406  1  0.54731459  0.00469738  0.31512221  1
  C  C407  1  0.57602065  0.36832913  0.98045165  1
  H  H408  1  0.63901132  0.10315610  0.72777850  1
  C  C409  1  0.65871205  0.07500616  0.77682197  1
  H  H410  1  0.56253226  0.41294904  0.83061507  1
  C  C411  1  0.69718270  0.09309413  0.82295697  1
  H  H412  1  0.74929227  0.14846740  0.55141276  1
  H  H413  1  0.70317525  0.14113150  0.81578831  1
  H  H414  1  0.53466163  0.27896920  0.52372299  1
  C  C415  1  0.72372232  0.05757125  0.88808302  1
  C  C416  1  0.68973682  0.44276045  0.67559091  1
  C  C417  1  0.74368756  0.27402912  0.73007558  1
  O  O418  1  0.71842239  0.45244385  0.73789262  1
  C  C419  1  0.52800491  0.42509676  0.60254627  1
  O  O420  1  0.67826395  0.38791053  0.64757293  1
  C  C421  1  0.68896931  0.20868032  0.65269348  1
  Cu  Cu422  1  0.71484136  0.33243248  0.58305073  1
  H  H423  1  0.58946088  0.21509094  0.86372051  1
  H  H424  1  0.57249071  0.27225451  0.78206823  1
  H  H425  1  0.54899888  0.20568045  0.76067658  1
  C  C426  1  0.57991377  0.22592582  0.78017902  1
  H  H427  1  0.61555107  0.43270097  0.55418372  1
  O  O428  1  0.61512452  0.20454011  0.71068916  1
  C  C429  1  0.73102383  0.23186499  0.65493495  1
  C  C430  1  0.65496984  0.22411099  0.72377662  1
  C  C431  1  0.66889001  0.27141867  0.79355160  1
  C  C432  1  0.66453875  0.49446800  0.62336146  1
  H  H433  1  0.61762489  0.35982574  0.73494799  1
  C  C434  1  0.52324626  0.31866293  0.56575224  1
  H  H435  1  0.60978766  0.17827281  0.55938095  1
  H  H436  1  0.73311011  0.03487781  0.69989397  1
  C  C437  1  0.67998931  0.16799418  0.56342133  1
  H  H438  1  0.71582370  0.33291234  0.85550143  1
  C  C439  1  0.70971070  0.29463372  0.80144782  1
  C  C440  1  0.58260992  0.38050635  0.87177342  1
  C  C441  1  0.63634312  0.30157018  0.86618141  1
  C  C442  1  0.61319136  0.34765272  0.81893022  1
  C  C443  1  0.64535055  0.01704756  0.79995501  1
  C  C444  1  0.62847143  0.47797212  0.56582558  1
  H  H445  1  0.54091557  0.46864620  0.57792097  1
  H  H446  1  0.51924143  0.31719829  0.91804533  1
  C  C447  1  0.60131873  0.00392974  0.76606249  1
  C  C448  1  0.62950950  0.28915393  0.97910371  1
  O  O449  1  0.57787896  0.03298762  0.71689138  1
  C  C450  1  0.71725934  0.14063051  0.51558594  1
  C  C451  1  0.53549942  0.37659276  0.53317719  1
  C  C452  1  0.63766076  0.15812307  0.52125066  1
  C  C453  1  0.50720926  0.41682069  0.69919412  1
  O  O454  1  0.52501286  0.44603418  0.99078713  1
  C  C455  1  0.52225880  0.67403094  0.43573080  1
  H  H456  1  0.58880316  0.93137161  0.00167432  1
  C  C457  1  0.61190323  0.67764697  0.41504119  1
  H  H458  1  0.64702739  0.67912726  0.40918654  1
  C  C459  1  0.53939741  0.66656708  0.14828853  1
  H  H460  1  0.66483542  0.71808867  0.24281999  1
  H  H461  1  0.52410188  0.74519212  0.32323813  1
  H  H462  1  0.54395141  0.59297695  0.25180303  1
  C  C463  1  0.53127737  0.92779759  0.13427044  1
  H  H464  1  0.56808413  0.68677942  0.18397051  1
  H  H465  1  0.69330207  0.82158257  0.37156641  1
  C  C466  1  0.74064890  0.77479881  0.14278392  1
  C  C467  1  0.69833853  0.53826191  0.24616813  1
  C  C468  1  0.58406367  0.82294947  0.28734019  1
  C  C469  1  0.58697365  0.71902230  0.35830247  1
  C  C470  1  0.54188202  0.71423199  0.36781653  1
  C  C471  1  0.52451341  0.61217155  0.18201067  1
  C  C472  1  0.57251390  0.95480807  0.29818656  1
  C  C473  1  0.56361693  0.91492658  0.20909588  1
  Cu  Cu474  1  0.71925057  0.95157114  0.28966246  1
  C  C475  1  0.60759162  0.76885348  0.28988315  1
  C  C476  1  0.64672401  0.75948031  0.23543356  1
  C  C477  1  0.67316639  0.54933668  0.06038066  1
  Cu  Cu478  1  0.74782718  0.50060335  0.41128189  1
  H  H479  1  0.61232235  0.96783802  0.12685646  1
  O  O480  1  0.74026731  0.87566223  0.28457927  1
  C  C481  1  0.59575911  0.86278728  0.20856590  1
  H  H482  1  0.55667756  0.82963971  0.34228117  1
  C  C483  1  0.59133193  0.63553175  0.48106826  1
  H  H484  1  0.59843317  0.94672050  0.35566607  1
  O  O485  1  0.72344454  0.55651841  0.32237885  1
  C  C486  1  0.61951076  0.94772606  0.04445294  1
  C  C487  1  0.69940775  0.79522347  0.10153528  1
  C  C488  1  0.65789420  0.80524886  0.16277541  1
  H  H489  1  0.74063386  0.75732567  0.22361496  1
  C  C490  1  0.63214334  0.85628635  0.14228806  1
  C  C491  1  0.71306951  0.80266236  0.43184727  1
  C  C492  1  0.52126898  0.69207817  0.05377091  1
  O  O493  1  0.64360346  0.89469690  0.06205483  1
  C  C494  1  0.50674699  0.97933021  0.14680022  1
  C  C495  1  0.70262192  0.56669772  0.14287901  1
  H  H496  1  0.51323745  0.88764073  0.33514745  1
  H  H497  1  0.52728035  0.89820364  0.06360321  1
  H  H498  1  0.64860157  0.51655952  0.08176388  1
  H  H499  1  0.63543665  0.98629809  0.00128761  1
  C  C500  1  0.74068144  0.99418071  0.49855071  1
  C  C501  1  0.73805349  0.63710507  0.02723816  1
  C  C502  1  0.73505474  0.60981616  0.12677152  1
  H  H503  1  0.57536474  0.51999302  0.46777669  1
  C  C504  1  0.70133980  0.66392373  0.85964751  1
  C  C505  1  0.70737518  0.61826719  0.94840426  1
  C  C506  1  0.72255818  0.67198342  0.75734113  1
  H  H507  1  0.59511862  0.68817875  0.97659688  1
  H  H508  1  0.73095775  0.97024235  0.94665555  1
  C  C509  1  0.69301493  0.80730409  0.99148572  1
  C  C510  1  0.70298402  0.72094180  0.70007319  1
  H  H511  1  0.70853941  0.56168250  0.67852795  1
  H  H512  1  0.66976322  0.64542241  0.59067622  1
  C  C513  1  0.53370399  0.86653053  0.55995854  1
  C  C514  1  0.72175975  0.74047436  0.59592545  1
  H  H515  1  0.53722448  0.86673723  0.65300919  1
  H  H516  1  0.65467367  0.56363491  0.89410471  1
  H  H517  1  0.58897215  0.84126444  0.76717725  1
  C  C518  1  0.66730206  0.69902668  0.89861538  1
  H  H519  1  0.74925427  0.56984817  0.82558116  1
  C  C520  1  0.66521592  0.75026001  0.72329855  1
  C  C521  1  0.53916314  0.74281176  0.98720146  1
  C  C522  1  0.69453567  0.76645005  0.51316434  1
  H  H523  1  0.66603301  0.92779175  0.87029925  1
  H  H524  1  0.53462403  0.71086656  0.74203807  1
  H  H525  1  0.66065313  0.81648120  0.96180034  1
  C  C526  1  0.60236994  0.76003624  0.86632376  1
  C  C527  1  0.67989289  0.55264609  0.63192661  1
  H  H528  1  0.65526723  0.69442996  0.97719064  1
  C  C529  1  0.65784040  0.60171761  0.59292554  1
  H  H530  1  0.72669692  0.83143928  0.84683879  1
  C  C531  1  0.73041577  0.81693705  0.93113124  1
  C  C532  1  0.57880417  0.80980251  0.83323582  1
  C  C533  1  0.51847502  0.79662644  0.96138893  1
  O  O534  1  0.71240636  0.96772932  0.54040502  1
  H  H535  1  0.65562254  0.78602412  0.66466130  1
  C  C536  1  0.51914498  0.88283131  0.83674478  1
  H  H537  1  0.52536497  0.96808907  0.76736230  1
  C  C538  1  0.58018143  0.72849048  0.94476932  1
  C  C539  1  0.54442456  0.93237449  0.80433597  1
  C  C540  1  0.54001095  0.82761622  0.88003721  1
  C  C541  1  0.64548418  0.73403252  0.82172132  1
  O  O542  1  0.58500843  0.94082378  0.80307563  1
  O  O543  1  0.52959499  0.59494954  0.57025140  1
  C  C544  1  0.67557457  0.57356782  0.95946007  1
  H  H545  1  0.65957185  0.75741069  0.51017311  1
  O  O546  1  0.56962830  0.88039607  0.53326205  1
  C  C547  1  0.67308762  0.97616695  0.85553162  1
  C  C548  1  0.61910694  0.58814179  0.53184286  1
  C  C549  1  0.60487419  0.52672577  0.52051778  1
  C  C550  1  0.71101784  0.99872233  0.89585187  1
  C  C551  1  0.54582404  0.63303508  0.50163464  1
  H  H552  1  0.99069988  0.47505792  0.14038273  1
  O  O553  1  0.77600010  0.44383812  0.48758168  1
  H  H554  1  0.82923560  0.27858709  0.02524820  1
  C  C555  1  0.88534958  0.09210456  0.01712717  1
  C  C556  1  0.96061903  0.11979861  0.03558470  1
  C  C557  1  0.87726332  0.34300243  0.07583210  1
  C  C558  1  0.97147022  0.06225124  0.05091724  1
  C  C559  1  0.84820949  0.41338180  0.21482585  1
  C  C560  1  0.97083358  0.18096209  0.38427429  1
  C  C561  1  0.93837632  0.01917771  0.04890540  1
  C  C562  1  0.77359679  0.16104915  0.07905063  1
  C  C563  1  0.91363512  0.25944042  0.37290941  1
  H  H564  1  0.86806689  0.44756074  0.17551841  1
  C  C565  1  0.88601962  0.29734337  0.42851950  1
  H  H566  1  0.81604590  0.04360695  0.42200215  1
  C  C567  1  0.89506754  0.03068116  0.02740389  1
  H  H568  1  0.87067463  0.33527934  0.38568259  1
  C  C569  1  0.81860900  0.15185391  0.07702519  1
  C  C570  1  0.97907091  0.22886087  0.06832436  1
  C  C571  1  0.77767289  0.39146645  0.45381695  1
  O  O572  1  0.97901899  0.18600518  0.28580163  1
  H  H573  1  0.90716845  0.18288609  0.00497401  1
  H  H574  1  0.82271281  0.26764114  0.17482645  1
  H  H575  1  0.94829918  0.23484592  0.10111698  1
  H  H576  1  0.91747777  0.26255356  0.28697589  1
  H  H577  1  0.84020805  0.17932906  0.13108130  1
  O  O578  1  0.76027963  0.34833475  0.49931671  1
  C  C579  1  0.83705821  0.10841607  0.00967211  1
  C  C580  1  0.82128644  0.31264104  0.21537197  1
  C  C581  1  0.80188161  0.32332881  0.31370546  1
  C  C582  1  0.99211666  0.17192050  0.03232707  1
  C  C583  1  0.80273010  0.38042466  0.35393268  1
  C  C584  1  0.86060877  0.29909363  0.00739368  1
  C  C585  1  0.82548763  0.42732301  0.30585044  1
  C  C586  1  0.84884781  0.35591683  0.17196148  1
  H  H587  1  0.78348041  0.28881011  0.35285929  1
  O  O588  1  0.93682657  0.41370533  0.11936487  1
  H  H589  1  0.99736410  0.42059743  0.04119125  1
  H  H590  1  0.82620422  0.47145487  0.34742516  1
  C  C591  1  0.91668031  0.13751061  0.01860740  1
  C  C592  1  0.93710250  0.21775337  0.43312632  1
  O  O593  1  0.99275910  0.14653213  0.44152357  1
  C  C594  1  0.97255974  0.44736004  0.08273119  1
  H  H595  1  0.76439389  0.14810629  0.30225611  1
  C  C596  1  0.75439329  0.20491083  0.16235372  1
  C  C597  1  0.91621338  0.37549258  0.05375889  1
  C  C598  1  0.75200872  0.18900043  0.27257057  1
  H  H599  1  0.91200446  0.40278641  0.48479513  1
  H  H600  1  0.96032815  0.48221851  0.02700916  1
  C  C601  1  0.80563266  0.06318001  0.49657421  1
  C  C602  1  0.86206192  0.14396385  0.72962850  1
  H  H603  1  0.93602569  0.34533511  0.57014152  1
  C  C604  1  0.92421564  0.19458556  0.83201701  1
  C  C605  1  0.82646666  0.11976928  0.66021390  1
  H  H606  1  0.93861195  0.30197956  0.81364079  1
  C  C607  1  0.83089929  0.10676222  0.54877340  1
  H  H608  1  0.95705783  0.02009914  0.55661260  1
  H  H609  1  0.82206381  0.04445657  0.88940390  1
  C  C610  1  0.80662110  0.07713087  0.94439195  1
  H  H611  1  0.98422817  0.23393040  0.67715173  1
  C  C612  1  0.90362883  0.12025040  0.69810631  1
  C  C613  1  0.93283194  0.36065717  0.95081215  1
  O  O614  1  0.91201440  0.08296172  0.62299579  1
  C  C615  1  0.78948413  0.09450654  0.71070336  1
  C  C616  1  0.92870891  0.20911118  0.54523983  1
  H  H617  1  0.81437622  0.24290393  0.61081256  1
  C  C618  1  0.82137709  0.44478473  0.93998938  1
  C  C619  1  0.88324735  0.22297693  0.84999126  1
  C  C620  1  0.85133794  0.19153068  0.79667306  1
  C  C621  1  0.97128270  0.38242595  0.88511460  1
  C  C622  1  0.92551501  0.39235104  0.56612787  1
  H  H623  1  0.94413122  0.17139702  0.58963561  1
  H  H624  1  0.78254171  0.10094828  0.79748220  1
  H  H625  1  0.81768507  0.20750675  0.80580379  1
  C  C626  1  0.88571893  0.27785279  0.91870482  1
  C  C627  1  0.77121598  0.03526067  0.55417982  1
  C  C628  1  0.78476597  0.30624916  0.72582625  1
  C  C629  1  0.87864181  0.29076866  0.53920249  1
  C  C630  1  0.90228137  0.24687551  0.59675666  1
  C  C631  1  0.85557238  0.49221440  0.78145884  1
  H  H632  1  0.89630008  0.23893519  0.68510681  1
  H  H633  1  0.95187231  0.21353006  0.87623282  1
  O  O634  1  0.89770488  0.40951280  0.64723242  1
  C  C635  1  0.81728020  0.28351555  0.65216665  1
  H  H636  1  0.96680797  0.03750127  0.69551857  1
  C  C637  1  0.93549532  0.14874577  0.76416334  1
  C  C638  1  0.76010041  0.08892845  0.95053222  1
  C  C639  1  0.98582054  0.14871517  0.75320043  1
  C  C640  1  0.86368562  0.37589702  0.67510604  1
  C  C641  1  0.95630490  0.05705368  0.61565118  1
  C  C642  1  0.92093915  0.31153406  0.88654959  1
  C  C643  1  0.83327412  0.38909892  0.75957006  1
  C  C644  1  0.85265244  0.31979213  0.62889331  1
  C  C645  1  0.79619262  0.35846765  0.78357305  1
  C  C646  1  0.83960507  0.44149371  0.83251644  1
  H  H647  1  0.98713555  0.07796847  0.59479459  1
  C  C648  1  0.76309414  0.05464965  0.65854883  1
  C  C649  1  0.96829627  0.44049068  0.84557309  1
  H  H650  1  0.95767847  0.41817329  0.57005509  1
  H  H651  1  0.93970183  0.46662781  0.85680677  1
  H  H652  1  0.99342784  0.07058709  0.84949750  1
  H  H653  1  0.77310897  0.37596335  0.84045225  1
  H  H654  1  0.81177199  0.40502431  0.98235403  1
  H  H655  1  0.86572202  0.48727358  0.69820632  1
  H  H656  1  0.75242119  0.21775049  0.59256141  1
  H  H657  1  0.85792900  0.12037931  0.50425881  1
  C  C658  1  0.82642912  0.49721780  0.99395384  1
  H  H659  1  0.81686162  0.50096008  0.07730504  1
  H  H660  1  0.90508840  0.95032832  0.19726142  1
  O  O661  1  0.96380374  0.71435522  0.06265152  1
  H  H662  1  0.75841685  0.62208770  0.18981919  1
  C  C663  1  0.95393309  0.85188640  0.41284691  1
  O  O664  1  0.80911740  0.86198951  0.31617240  1
  O  O665  1  0.83630114  0.59803149  0.10700744  1
  C  C666  1  0.77798728  0.77877307  0.08372812  1
  C  C667  1  0.94819852  0.95211484  0.06572052  1
  H  H668  1  0.99172957  0.88448034  0.27516479  1
  C  C669  1  0.77266557  0.85062243  0.34100716  1
  O  O670  1  0.92441211  0.86701019  0.18313360  1
  H  H671  1  0.92414669  0.83841626  0.36712515  1
  H  H672  1  0.93825929  0.78298351  0.18436778  1
  C  C673  1  0.92661162  0.92214201  0.14744682  1
  H  H674  1  0.81074992  0.76654662  0.11744996  1
  C  C675  1  0.94500232  0.82332035  0.13242917  1
  C  C676  1  0.97108672  0.82241294  0.04793724  1
  C  C677  1  0.75864116  0.81017243  0.42922149  1
  O  O678  1  0.84538714  0.56773686  0.43169396  1
  C  C679  1  0.84876896  0.60103429  0.01480844  1
  C  C680  1  0.81402554  0.57102403  0.46592756  1
  C  C681  1  0.98992214  0.87877506  0.36504666  1
  O  O682  1  0.75079294  0.98848583  0.39644084  1
  H  H683  1  0.87248828  0.99548699  0.03281011  1
  Cu  Cu684  1  0.91211560  0.68286645  0.01293646  1
  C  C685  1  0.98619797  0.75846492  0.02161849  1
  H  H686  1  0.76180752  0.67111401  0.00878016  1
  C  C687  1  0.91273785  0.82824030  0.56586627  1
  O  O688  1  0.91660261  0.70597827  0.76430293  1
  O  O689  1  0.88395196  0.81572048  0.50341377  1
  C  C690  1  0.98695425  0.67448495  0.73718679  1
  O  O691  1  0.84389353  0.79093510  0.94614647  1
  C  C692  1  0.80796756  0.81372849  0.90922353  1
  H  H693  1  0.99132451  0.95476301  0.92659470  1
  Cu  Cu694  1  0.88008490  0.74615810  0.85787792  1
  C  C695  1  0.95408465  0.85019253  0.52322229  1
  C  C696  1  0.94712937  0.67292038  0.80074562  1
  C  C697  1  0.84537687  0.54797600  0.94347688  1
  C  C698  1  0.99113721  0.70781414  0.64336718  1
  C  C699  1  0.77664424  0.59835973  0.80676500  1
  H  H700  1  0.87003854  0.58656016  0.79560884  1
  H  H701  1  0.78821870  0.72651933  0.65010468  1
  O  O702  1  0.80839812  0.83765286  0.81991241  1
  C  C703  1  0.76768532  0.74806518  0.58597695  1
  C  C704  1  0.85965025  0.54568250  0.83749343  1
  Cu  Cu705  1  0.85860024  0.83594326  0.73887670  1
  C  C706  1  0.77101815  0.80256459  0.97777864  1
  O  O707  1  0.90531035  0.83390584  0.66832873  1
  H  H708  1  0.96218592  0.73041149  0.62006421  1
  C  C709  1  0.98453248  0.86750362  0.97823359  1
  H  H710  1  0.80385166  0.57530149  0.76349127  1
  O  O711  1  0.94142205  0.64819438  0.88640816  1
  H  H712  1  0.78958689  0.61878266  0.88182851  1
  C  C713  1  0.97620399  0.92703113  0.98566285  1
  O  O714  1  0.75541296  0.64369834  0.72863755  1
  H  H715  1  0.98421847  0.86881260  0.68200002  1
  C  C716  1  0.98841612  0.86963871  0.59388498  1
  O  O717  1  0.86019908  0.65287163  0.97707708  1
  C  C718  1  0.78682734  0.78598101  0.50895896  1
  H  H719  1  0.82228434  0.79549682  0.51026667  1
