# generated using pymatgen
data_CuH13C21O5
_symmetry_space_group_name_H-M   'P 1'
_cell_length_a   29.05335256
_cell_length_b   26.19024198
_cell_length_c   11.26739703
_cell_angle_alpha   90.00000000
_cell_angle_beta   90.00000000
_cell_angle_gamma   90.00000000
_symmetry_Int_Tables_number   1
_chemical_formula_structural   CuH13C21O5
_chemical_formula_sum   'Cu18 H234 C378 O90'
_cell_volume   8573.52390510
_cell_formula_units_Z   18
loop_
 _symmetry_equiv_pos_site_id
 _symmetry_equiv_pos_as_xyz
  1  'x, y, z'
loop_
 _atom_site_type_symbol
 _atom_site_label
 _atom_site_symmetry_multiplicity
 _atom_site_fract_x
 _atom_site_fract_y
 _atom_site_fract_z
 _atom_site_occupancy
  H  H0  1  0.18809008  0.20237907  0.33524602  1
  H  H1  1  0.10541815  0.13133728  0.32350176  1
  C  C2  1  0.10667062  0.21251750  0.34358353  1
  H  H3  1  0.09488720  0.22079392  0.25499481  1
  C  C4  1  0.11234731  0.16308314  0.38233543  1
  C  C5  1  0.21166171  0.03099154  0.06054750  1
  C  C6  1  0.22659720  0.01593113  0.16944622  1
  C  C7  1  0.20997345  0.23621726  0.30421316  1
  O  O8  1  0.23949050  0.15417139  0.43137529  1
  O  O9  1  0.13030323  0.06066957  0.48063167  1
  H  H10  1  0.20553375  0.07195480  0.03567887  1
  C  C11  1  0.12934162  0.15071748  0.49923816  1
  Cu  Cu12  1  0.24912228  0.08822291  0.41122150  1
  H  H13  1  0.12983964  0.05035135  0.04114196  1
  H  H14  1  0.07371879  0.07599206  0.02768966  1
  H  H15  1  0.22937475  0.25004326  0.07735237  1
  H  H16  1  0.02917758  0.32813677  0.13086953  1
  C  C17  1  0.01001511  0.29840268  0.17977105  1
  C  C18  1  0.11639428  0.25269296  0.43120090  1
  C  C19  1  0.22496860  0.31914321  0.22030269  1
  H  H20  1  0.16032421  0.27465051  0.19267913  1
  C  C21  1  0.03086495  0.39946965  0.25270435  1
  C  C22  1  0.18004246  0.49344366  0.11529206  1
  C  C23  1  0.12522030  0.39712544  0.46574416  1
  H  H24  1  0.18841085  0.40426699  0.25194715  1
  C  C25  1  0.08537571  0.41295675  0.40744607  1
  C  C26  1  0.04140942  0.43545471  0.05840301  1
  C  C27  1  0.19353476  0.27709658  0.23864366  1
  C  C28  1  0.10287758  0.30890200  0.41854481  1
  H  H29  1  0.09675866  0.39896781  0.15143352  1
  C  C30  1  0.21841614  0.35513997  0.11387111  1
  C  C31  1  0.18880490  0.46390879  0.43117043  1
  C  C32  1  0.06103005  0.37234901  0.34815191  1
  H  H33  1  0.07662246  0.45331941  0.39883518  1
  H  H34  1  0.19082786  0.45187778  0.33917104  1
  C  C35  1  0.20058292  0.40088096  0.15566388  1
  C  C36  1  0.13395047  0.34335514  0.46859029  1
  O  O37  1  0.03592067  0.28548028  0.28364057  1
  C  C38  1  0.06198955  0.31864040  0.34705968  1
  H  H39  1  0.12569363  0.47202647  0.24725303  1
  C  C40  1  0.06020502  0.41114126  0.15336682  1
  C  C41  1  0.19754284  0.44165289  0.07331642  1
  H  H42  1  0.00326318  0.26861455  0.11029234  1
  H  H43  1  0.16797564  0.32835482  0.49940768  1
  O  O44  1  0.15847725  0.09782474  0.65972871  1
  C  C45  1  0.17416128  0.18993979  0.87595140  1
  C  C46  1  0.21851431  0.20227357  0.84084963  1
  C  C47  1  0.19558315  0.10387036  0.87452732  1
  H  H48  1  0.08117861  0.18084994  0.82630539  1
  C  C49  1  0.16899559  0.05716583  0.71340103  1
  H  H50  1  0.15487581  0.17828281  0.66531454  1
  C  C51  1  0.18817135  0.05060441  0.82676563  1
  C  C52  1  0.15778778  0.13863760  0.90323392  1
  C  C53  1  0.09171926  0.22063568  0.83048782  1
  H  H54  1  0.16357578  0.02336466  0.65285080  1
  H  H55  1  0.09748183  0.04536883  0.90065776  1
  C  C56  1  0.13886054  0.23175363  0.85171655  1
  O  O57  1  0.11715127  0.12939902  0.94544284  1
  C  C58  1  0.24240106  0.11502834  0.85320229  1
  C  C59  1  0.14204694  0.18992219  0.57845787  1
  H  H60  1  0.01595567  0.07355351  0.80995147  1
  C  C61  1  0.10548527  0.07185663  0.97864551  1
  H  H62  1  0.22252162  0.24013066  0.80265077  1
  C  C63  1  0.13573968  0.24187866  0.54548117  1
  H  H64  1  0.02455433  0.24671598  0.77896587  1
  C  C65  1  0.00366461  0.04122266  0.86607388  1
  C  C66  1  0.13809359  0.09729540  0.53367329  1
  C  C67  1  0.07203924  0.30869140  0.80412686  1
  Cu  Cu68  1  0.02112597  0.44521850  0.72246725  1
  O  O69  1  0.00510523  0.47801090  0.87150382  1
  H  H70  1  0.20369987  0.46447358  0.89437917  1
  C  C71  1  0.15835612  0.44021336  0.51342525  1
  C  C72  1  0.06005457  0.25714533  0.80604844  1
  H  H73  1  0.13698166  0.27378020  0.60691722  1
  H  H74  1  0.06002743  0.44228983  0.97591872  1
  H  H75  1  0.18633098  0.29265149  0.86772422  1
  C  C76  1  0.03878931  0.35233920  0.78705008  1
  H  H77  1  0.13994718  0.48257742  0.88907544  1
  C  C78  1  0.20908755  0.43327996  0.95686679  1
  C  C79  1  0.14986606  0.46380977  0.62158199  1
  H  H80  1  0.12345509  0.44719294  0.68502698  1
  C  C81  1  0.11946546  0.32280712  0.81725866  1
  O  O82  1  0.05697948  0.39805255  0.78517263  1
  C  C83  1  0.14992072  0.28445062  0.84054548  1
  H  H84  1  0.12881146  0.36329272  0.80745221  1
  C  C85  1  0.23106057  0.38696941  0.92255236  1
  C  C86  1  0.23691322  0.34536464  0.99657222  1
  O  O87  1  0.15619886  0.64375061  0.25384858  1
  H  H88  1  0.08873684  0.64757760  0.28799780  1
  C  C89  1  0.16013235  0.59933592  0.20042727  1
  C  C90  1  0.12068283  0.65225670  0.33945512  1
  C  C91  1  0.09390625  0.54690615  0.31467220  1
  H  H92  1  0.12104421  0.62683555  0.41620157  1
  H  H93  1  0.11838145  0.69206453  0.37363393  1
  C  C94  1  0.04814571  0.54507602  0.26606307  1
  C  C95  1  0.19107059  0.58659955  0.10757577  1
  C  C96  1  0.02112511  0.51769044  0.46033023  1
  C  C97  1  0.09841798  0.54036219  0.43642332  1
  C  C98  1  0.13655836  0.55259709  0.23627176  1
  H  H99  1  0.04055411  0.55848929  0.17465227  1
  C  C100  1  0.19911352  0.53626416  0.06083328  1
  C  C101  1  0.01289471  0.52429098  0.33595334  1
  O  O102  1  0.06456425  0.63573227  0.06508269  1
  H  H103  1  0.02755188  0.62541423  0.44539519  1
  H  H104  1  0.13385534  0.54237364  0.47104510  1
  C  C105  1  0.21660354  0.62662945  0.03609511  1
  H  H106  1  0.10081184  0.54440903  0.01952748  1
  C  C107  1  0.21550140  0.50534646  0.46830224  1
  H  H108  1  0.22992945  0.61280552  0.42501554  1
  C  C109  1  0.04214452  0.71978198  0.46514920  1
  H  H110  1  0.02482159  0.73425841  0.27360989  1
  C  C111  1  0.04840262  0.74219365  0.35031983  1
  C  C112  1  0.24975990  0.58759082  0.36513772  1
  C  C113  1  0.24735775  0.53386439  0.38019412  1
  C  C114  1  0.14627832  0.50245951  0.20482546  1
  H  H115  1  0.16071084  0.68136431  0.01462080  1
  H  H116  1  0.00273190  0.80049633  0.43286709  1
  C  C117  1  0.24121241  0.99401503  0.27614275  1
  O  O118  1  0.23653652  0.94471350  0.30163228  1
  H  H119  1  0.09151716  0.79811124  0.25427653  1
  C  C120  1  0.08482097  0.77667294  0.33752483  1
  C  C121  1  0.22811448  0.79532110  0.26203969  1
  C  C122  1  0.14328021  0.83321858  0.42836004  1
  O  O123  1  0.14718853  0.86243625  0.34922621  1
  C  C124  1  0.11192567  0.78950282  0.43620640  1
  H  H125  1  0.21032240  0.89612520  0.45845556  1
  H  H126  1  0.18682029  0.84413693  0.15171386  1
  C  C127  1  0.21492421  0.81508763  0.15628207  1
  H  H128  1  0.15204941  0.79284952  0.01764800  1
  C  C129  1  0.23634152  0.79795791  0.04801398  1
  H  H130  1  0.21380062  0.81048737  0.34629026  1
  H  H131  1  0.20592645  0.94747812  0.01232138  1
  C  C132  1  0.13651016  0.58782380  0.69657135  1
  H  H133  1  0.14314399  0.59960738  0.60657875  1
  H  H134  1  0.10784675  0.66237095  0.75528446  1
  C  C135  1  0.15073164  0.53954412  0.74182968  1
  C  C136  1  0.21676477  0.69628682  0.89862222  1
  C  C137  1  0.11657526  0.62197889  0.77590849  1
  C  C138  1  0.10468094  0.60709607  0.88922249  1
  C  C139  1  0.21332873  0.53074936  0.58110462  1
  H  H140  1  0.07048773  0.52721395  0.61016014  1
  C  C141  1  0.13467131  0.52276072  0.85640961  1
  C  C142  1  0.11269488  0.55662936  0.93156676  1
  H  H143  1  0.06983795  0.70462871  0.64204062  1
  C  C144  1  0.23711570  0.58555222  0.73956511  1
  O  O145  1  0.23721159  0.57170445  0.61925396  1
  C  C146  1  0.17673063  0.50778160  0.64806078  1
  C  C147  1  0.08330455  0.64779253  0.97196282  1
  H  H148  1  0.20414257  0.59601628  0.78083360  1
  H  H149  1  0.19973979  0.72845447  0.85637087  1
  H  H150  1  0.00695498  0.73229577  0.71434725  1
  O  O151  1  0.08319716  0.69240676  0.93038053  1
  C  C152  1  0.07550071  0.72552074  0.55587567  1
  C  C153  1  0.19484237  0.66905053  0.98718173  1
  H  H154  1  0.22251731  0.53199528  0.98316203  1
  C  C155  1  0.06318544  0.53184113  0.51453664  1
  C  C156  1  0.00147123  0.95089880  0.91415200  1
  C  C157  1  0.19327446  0.99948957  0.86326207  1
  C  C158  1  0.16706691  0.81634088  0.94648768  1
  C  C159  1  0.21520556  0.82012156  0.93580706  1
  C  C160  1  0.01170321  0.80762444  0.89052347  1
  C  C161  1  0.11045736  0.76084000  0.54402372  1
  H  H162  1  0.05039210  0.98540541  0.79369288  1
  H  H163  1  0.07579821  0.76038429  0.88664032  1
  C  C164  1  0.06448509  0.89194588  0.87725372  1
  C  C165  1  0.13797244  0.83934824  0.86180522  1
  C  C166  1  0.16137529  0.86755357  0.77553042  1
  C  C167  1  0.20606547  0.98745525  0.98010812  1
  H  H168  1  0.18359201  0.97022802  0.79519249  1
  C  C169  1  0.08540774  0.84384909  0.86356765  1
  C  C170  1  0.20060021  0.87674771  0.54648906  1
  C  C171  1  0.05838819  0.79912470  0.87332524  1
  C  C172  1  0.22409097  0.89336637  0.64720463  1
  H  H173  1  0.02916888  0.80361306  0.56734997  1
  C  C174  1  0.20948534  0.86697257  0.75985103  1
  C  C175  1  0.23947952  0.84554396  0.84757186  1
  C  C176  1  0.01819436  0.89531585  0.89882108  1
  H  H177  1  0.14074450  0.88632148  0.70292863  1
  C  C178  1  0.02159517  0.99245908  0.85762809  1
  H  H179  1  0.08528354  0.92851566  0.87873381  1
  H  H180  1  0.13336567  0.76826705  0.62196864  1
  O  O181  1  0.17180522  0.84074331  0.54035873  1
  H  H182  1  0.43595596  0.05604724  0.38521747  1
  C  C183  1  0.27096865  0.18941834  0.41621224  1
  O  O184  1  0.25571031  0.02386754  0.37156117  1
  O  O185  1  0.30717123  0.18736599  0.45965289  1
  H  H186  1  0.48083435  0.00967737  0.12173848  1
  C  C187  1  0.43609784  0.06728665  0.48033690  1
  C  C188  1  0.25627891  0.23555071  0.34495984  1
  H  H189  1  0.28141132  0.22393573  0.00733725  1
  H  H190  1  0.38956010  0.13300997  0.47910630  1
  C  C191  1  0.49769391  0.40569095  0.39084471  1
  H  H192  1  0.48594360  0.43061442  0.46584278  1
  C  C193  1  0.26496066  0.25787923  0.04251870  1
  C  C194  1  0.44432272  0.45114577  0.24826160  1
  H  H195  1  0.29164899  0.35209774  0.24200050  1
  O  O196  1  0.43875500  0.46308613  0.14009848  1
  C  C197  1  0.28777615  0.27625863  0.32842939  1
  O  O198  1  0.33942625  0.44249871  0.44362266  1
  C  C199  1  0.27404571  0.49918979  0.31173351  1
  C  C200  1  0.27057825  0.31877450  0.26730703  1
  H  H201  1  0.32988334  0.49293027  0.17973366  1
  O  O202  1  0.33890180  0.36006436  0.40665642  1
  C  C203  1  0.32518507  0.39620324  0.46176999  1
  H  H204  1  0.28536763  0.26676642  0.12410549  1
  H  H205  1  0.26917638  0.45843273  0.32529005  1
  Cu  Cu206  1  0.39761561  0.46633072  0.46508337  1
  C  C207  1  0.47671544  0.41149627  0.27623268  1
  H  H208  1  0.32453124  0.28065348  0.36083182  1
  O  O209  1  0.42991934  0.47933138  0.33191712  1
  H  H210  1  0.47331552  0.37957850  0.09634226  1
  C  C211  1  0.48789902  0.37539335  0.18596905  1
  C  C212  1  0.45837491  0.03479007  0.55543402  1
  C  C213  1  0.30451234  0.18459575  0.80037950  1
  C  C214  1  0.37712618  0.15617395  0.71046542  1
  C  C215  1  0.40826581  0.11288923  0.65771775  1
  C  C216  1  0.33215590  0.14663009  0.74737268  1
  C  C217  1  0.39545973  0.20533541  0.71904393  1
  H  H218  1  0.31833000  0.10676947  0.74674649  1
  O  O219  1  0.43902768  0.21885374  0.68606495  1
  H  H220  1  0.42874883  0.08131002  0.83611732  1
  C  C221  1  0.45533267  0.03863433  0.68531332  1
  C  C222  1  0.43103939  0.07680932  0.73969752  1
  C  C223  1  0.47309944  0.17919613  0.68102053  1
  H  H224  1  0.36471865  0.03670639  0.65050242  1
  C  C225  1  0.31980924  0.23569571  0.79923607  1
  C  C226  1  0.41130536  0.10889032  0.53391386  1
  H  H227  1  0.47706724  0.15118443  0.75369087  1
  H  H228  1  0.26685068  0.08316974  0.83652401  1
  C  C229  1  0.32414137  0.01150840  0.85623780  1
  O  O230  1  0.33374246  0.03185481  0.94616742  1
  H  H231  1  0.47657132  0.01176947  0.73769715  1
  H  H232  1  0.46849364  0.15720908  0.59397103  1
  C  C233  1  0.25638009  0.16628771  0.84091773  1
  C  C234  1  0.49435415  0.10434487  0.94323195  1
  C  C235  1  0.33885309  0.00405600  0.63916886  1
  C  C236  1  0.36424323  0.24606223  0.75498545  1
  O  O237  1  0.48047966  0.14622286  0.96126791  1
  O  O238  1  0.26102483  0.30511509  0.96013867  1
  H  H239  1  0.48938510  0.48481974  0.71008145  1
  C  C240  1  0.25217613  0.38649545  0.80013268  1
  H  H241  1  0.29470008  0.30946062  0.56664247  1
  C  C242  1  0.37452835  0.30131331  0.76358793  1
  C  C243  1  0.39504921  0.40537987  0.74008907  1
  C  C244  1  0.29784585  0.39142202  0.57443506  1
  C  C245  1  0.40398589  0.45814297  0.70991594  1
  H  H246  1  0.41883552  0.29022287  0.60842138  1
  C  C247  1  0.28239009  0.43716538  0.63301569  1
  C  C248  1  0.36580715  0.38915340  0.83441149  1
  C  C249  1  0.41390546  0.36901674  0.66195295  1
  H  H250  1  0.47672404  0.28153240  0.76872942  1
  O  O251  1  0.39147470  0.49203096  0.78690351  1
  C  C252  1  0.26203509  0.43354851  0.74174777  1
  O  O253  1  0.42558386  0.47100912  0.61859464  1
  C  C254  1  0.26173108  0.34353596  0.72727130  1
  H  H255  1  0.25029374  0.46588238  0.79746833  1
  H  H256  1  0.44109941  0.38002588  0.59451992  1
  C  C257  1  0.35276852  0.33904811  0.83838541  1
  H  H258  1  0.34917602  0.41485069  0.89894792  1
  H  H259  1  0.29950210  0.26826436  0.83541750  1
  C  C260  1  0.40262332  0.31871530  0.66997678  1
  H  H261  1  0.32695510  0.32961370  0.90751913  1
  H  H262  1  0.28668646  0.47502192  0.59390542  1
  C  C263  1  0.28603536  0.34410360  0.61775188  1
  H  H264  1  0.25496794  0.30655993  0.77122062  1
  C  C265  1  0.31475848  0.57093418  0.22165751  1
  C  C266  1  0.45359195  0.72109121  0.06570944  1
  O  O267  1  0.35389931  0.64222528  0.14672279  1
  C  C268  1  0.34976023  0.59574160  0.14384492  1
  C  C269  1  0.28536744  0.60224785  0.29063405  1
  H  H270  1  0.29582348  0.64386605  0.29309176  1
  O  O271  1  0.31243097  0.70863589  0.40375580  1
  O  O272  1  0.37078644  0.57107643  0.06088492  1
  H  H273  1  0.43539742  0.72886820  0.15022078  1
  H  H274  1  0.30892226  0.70891989  0.16298032  1
  H  H275  1  0.41185130  0.65902713  0.01310463  1
  H  H276  1  0.27951042  0.58537876  0.04668964  1
  C  C277  1  0.30761461  0.51739935  0.23342498  1
  Cu  Cu278  1  0.40662432  0.52064034  0.09396277  1
  C  C279  1  0.28224519  0.73854280  0.16059553  1
  C  C280  1  0.28133745  0.74216150  0.38261157  1
  C  C281  1  0.49387494  0.74924418  0.03273921  1
  C  C282  1  0.38407370  0.82540556  0.48137350  1
  H  H283  1  0.41936666  0.84808622  0.32068999  1
  O  O284  1  0.25854378  0.75938569  0.46930349  1
  Cu  Cu285  1  0.28327371  0.90098922  0.32096295  1
  C  C286  1  0.33849352  0.84397748  0.44265387  1
  C  C287  1  0.46647212  0.82002646  0.45041547  1
  H  H288  1  0.49326782  0.92588599  0.38306118  1
  O  O289  1  0.32830351  0.85934836  0.33832794  1
  C  C290  1  0.49864822  0.97508946  0.08892660  1
  C  C291  1  0.49882245  0.93659053  0.18425661  1
  C  C292  1  0.26379092  0.75732905  0.26835921  1
  C  C293  1  0.26798903  0.75717157  0.05181873  1
  H  H294  1  0.30172601  0.82983004  0.01284392  1
  O  O295  1  0.48574170  0.99628347  0.35464468  1
  H  H296  1  0.49831721  0.82632647  0.39114876  1
  O  O297  1  0.45323895  0.86114464  0.02282970  1
  C  C298  1  0.48744898  0.84591832  0.08938474  1
  C  C299  1  0.42292113  0.83125631  0.40958334  1
  C  C300  1  0.49130936  0.95423202  0.30268493  1
  H  H301  1  0.41663788  0.79115083  0.00673156  1
  C  C302  1  0.48534081  0.99543466  0.49440105  1
  O  O303  1  0.32146455  0.70108781  0.71616406  1
  H  H304  1  0.32312771  0.63370984  0.89042299  1
  C  C305  1  0.28727015  0.64395031  0.91846030  1
  O  O306  1  0.46602806  0.62639513  0.69607285  1
  C  C307  1  0.28137420  0.70702039  0.75781512  1
  C  C308  1  0.44626907  0.63735595  0.79424692  1
  Cu  Cu309  1  0.32163969  0.70024835  0.55370897  1
  O  O310  1  0.41500638  0.60831557  0.83019204  1
  Cu  Cu311  1  0.42461265  0.53968651  0.87295937  1
  C  C312  1  0.46435575  0.67476298  0.87928118  1
  C  C313  1  0.26044126  0.68131765  0.85854754  1
  H  H314  1  0.25432464  0.55880190  0.80738585  1
  O  O315  1  0.48953255  0.53029212  0.93561940  1
  H  H316  1  0.28209351  0.74336196  0.96222793  1
  O  O317  1  0.25462096  0.73545363  0.69716537  1
  H  H318  1  0.25921096  0.62126277  0.74168644  1
  C  C319  1  0.44008915  0.68281472  0.98878871  1
  C  C320  1  0.26272775  0.61563996  0.99985324  1
  C  C321  1  0.43277968  0.82108997  0.94621649  1
  O  O322  1  0.33706496  0.99140358  0.53854909  1
  H  H323  1  0.40643354  0.83172000  0.87638992  1
  C  C324  1  0.25955215  0.92992635  0.63734146  1
  C  C325  1  0.31243828  0.98677764  0.74707092  1
  C  C326  1  0.43129501  0.78946052  0.64179594  1
  O  O327  1  0.28523852  0.85120921  0.83643130  1
  C  C328  1  0.38812622  0.80372641  0.59704094  1
  H  H329  1  0.43463077  0.76632083  0.72759216  1
  H  H330  1  0.32500331  0.78734857  0.89649707  1
  H  H331  1  0.35216660  0.84499121  0.91645803  1
  H  H332  1  0.46004387  0.80142555  0.89906690  1
  H  H333  1  0.46978917  0.92520995  0.75589311  1
  O  O334  1  0.30807582  0.84036849  0.51884025  1
  Cu  Cu335  1  0.28042883  0.78765361  0.61203124  1
  C  C336  1  0.47899753  0.88486079  0.72401381  1
  H  H337  1  0.44905040  0.85908536  0.75021948  1
  H  H338  1  0.26985905  0.94374559  0.54960287  1
  H  H339  1  0.47930153  0.88413786  0.62638121  1
  C  C340  1  0.27704828  0.95077072  0.74294697  1
  H  H341  1  0.26227466  0.93770907  0.82676090  1
  H  H342  1  0.35641678  0.79843698  0.64819265  1
  C  C343  1  0.47105803  0.80183824  0.57002055  1
  C  C344  1  0.31661534  0.82907845  0.91978341  1
  C  C345  1  0.60426923  0.14112650  0.13362369  1
  C  C346  1  0.60720500  0.08777867  0.17077849  1
  O  O347  1  0.57095552  0.06592752  0.20052170  1
  O  O348  1  0.64681110  0.06656630  0.17875990  1
  C  C349  1  0.56084602  0.16743445  0.13074757  1
  H  H350  1  0.52906937  0.14769676  0.16324322  1
  H  H351  1  0.69728931  0.22237164  0.40552760  1
  C  C352  1  0.64494305  0.16695956  0.10332379  1
  H  H353  1  0.67772978  0.14792846  0.11549609  1
  C  C354  1  0.64099913  0.01976504  0.47549534  1
  C  C355  1  0.62472919  0.23010444  0.36949749  1
  H  H356  1  0.54863624  0.23256582  0.34613061  1
  H  H357  1  0.73627612  0.14170710  0.47748713  1
  C  C358  1  0.55711058  0.21757037  0.09132962  1
  O  O359  1  0.59927561  0.01987316  0.44498651  1
  C  C360  1  0.64195796  0.21665391  0.06783329  1
  Cu  Cu361  1  0.57964439  0.01333037  0.28801953  1
  H  H362  1  0.66945143  0.24339002  0.04978414  1
  C  C363  1  0.73920682  0.00530491  0.02190532  1
  C  C364  1  0.66812216  0.24584030  0.38198909  1
  C  C365  1  0.59866079  0.24359701  0.05810379  1
  H  H366  1  0.52299891  0.23465469  0.07797851  1
  H  H367  1  0.71470912  0.04020240  0.00884728  1
  H  H368  1  0.74139426  0.25142490  0.47531232  1
  H  H369  1  0.73250864  0.33501984  0.12398005  1
  C  C370  1  0.58232043  0.25107339  0.34694635  1
  C  C371  1  0.65067322  0.36967844  0.03488463  1
  C  C372  1  0.60306066  0.29701152  0.01439460  1
  H  H373  1  0.65723545  0.47736728  0.04227414  1
  H  H374  1  0.59303413  0.38816614  0.19035131  1
  C  C375  1  0.68828510  0.45758934  0.06773263  1
  C  C376  1  0.63241758  0.33071463  0.34672473  1
  O  O377  1  0.63765599  0.38218616  0.33284937  1
  C  C378  1  0.73124703  0.37751862  0.10612759  1
  C  C379  1  0.72887549  0.37582921  0.36988473  1
  H  H380  1  0.70578205  0.40234171  0.32844375  1
  C  C381  1  0.68993599  0.40397318  0.07794426  1
  C  C382  1  0.71753895  0.32392731  0.39291883  1
  C  C383  1  0.72952237  0.48390165  0.07636880  1
  C  C384  1  0.52340244  0.34277799  0.20164577  1
  C  C385  1  0.60343601  0.41216778  0.26820395  1
  C  C386  1  0.64019339  0.31950638  0.07264442  1
  C  C387  1  0.59103348  0.30530633  0.32885676  1
  H  H388  1  0.57360033  0.42730415  0.31637358  1
  H  H389  1  0.61553651  0.44798408  0.22579961  1
  H  H390  1  0.65937753  0.30081953  0.15005010  1
  C  C391  1  0.54823180  0.33871784  0.31182639  1
  C  C392  1  0.67244859  0.30213349  0.37517139  1
  C  C393  1  0.53146653  0.36927104  0.40782656  1
  H  H394  1  0.53424498  0.31926505  0.12605099  1
  H  H395  1  0.54748236  0.36678908  0.49618292  1
  C  C396  1  0.68936312  0.13853302  0.71230202  1
  C  C397  1  0.70636470  0.17900415  0.79940265  1
  C  C398  1  0.64543769  0.14165905  0.65494599  1
  H  H399  1  0.62531997  0.17500395  0.67172673  1
  C  C400  1  0.70728012  0.23167848  0.77114639  1
  C  C401  1  0.71710318  0.09390253  0.68714095  1
  C  C402  1  0.69889271  0.05487785  0.61724465  1
  H  H403  1  0.71905043  0.11566477  0.91667394  1
  C  C404  1  0.72470515  0.15894954  0.90043672  1
  C  C405  1  0.65743614  0.06074379  0.55508002  1
  C  C406  1  0.63021832  0.10419140  0.57204481  1
  H  H407  1  0.50591680  0.19979138  0.67873667  1
  H  H408  1  0.71445598  0.01733169  0.60680514  1
  H  H409  1  0.74949980  0.08905740  0.72969637  1
  H  H410  1  0.54333410  0.00491908  0.80778015  1
  O  O411  1  0.65122484  0.01769343  0.92388893  1
  C  C412  1  0.51125158  0.05481544  0.92604077  1
  C  C413  1  0.52745012  0.00989287  0.90111431  1
  H  H414  1  0.59657817  0.10932147  0.52596823  1
  H  H415  1  0.53066663  0.30057356  0.69821397  1
  C  C416  1  0.54992318  0.46070796  0.61548286  1
  H  H417  1  0.60668921  0.43034812  0.51225142  1
  C  C418  1  0.56532051  0.39361134  0.78961300  1
  H  H419  1  0.67697411  0.31826651  0.56886778  1
  H  H420  1  0.71298259  0.36640248  0.90469026  1
  C  C421  1  0.69750036  0.30469108  0.64676334  1
  C  C422  1  0.58728527  0.36105696  0.88928179  1
  C  C423  1  0.51833490  0.45623881  0.71125115  1
  H  H424  1  0.63657785  0.42427438  0.89899067  1
  C  C425  1  0.59266500  0.39051447  0.68263382  1
  C  C426  1  0.73625428  0.25877299  0.85026002  1
  O  O427  1  0.68793375  0.25316848  0.67516323  1
  C  C428  1  0.52436441  0.42186041  0.80308879  1
  C  C429  1  0.62610675  0.38772154  0.93222208  1
  O  O430  1  0.53768199  0.28191631  0.88264467  1
  H  H431  1  0.61769457  0.36002624  0.66402811  1
  H  H432  1  0.68337070  0.32455547  0.73495446  1
  H  H433  1  0.73389485  0.31888563  0.62980302  1
  C  C434  1  0.57075002  0.31338986  0.92377509  1
  H  H435  1  0.50338919  0.42086723  0.88701131  1
  C  C436  1  0.58560087  0.42735057  0.59203568  1
  C  C437  1  0.74611788  0.36017743  0.85609016  1
  C  C438  1  0.50977653  0.30067604  0.78332885  1
  H  H439  1  0.50525834  0.34208330  0.81106042  1
  C  C440  1  0.60399408  0.63243889  0.36168921  1
  O  O441  1  0.66574411  0.56823130  0.34250022  1
  H  H442  1  0.53392708  0.56032202  0.34749036  1
  H  H443  1  0.55735410  0.69902745  0.37203108  1
  C  C444  1  0.57542404  0.61657559  0.25281841  1
  C  C445  1  0.58746564  0.64144532  0.14576570  1
  C  C446  1  0.64754174  0.54640718  0.24047757  1
  H  H447  1  0.61291648  0.67271813  0.13935817  1
  H  H448  1  0.68321687  0.66731933  0.29407692  1
  C  C449  1  0.54527510  0.57425643  0.25848246  1
  H  H450  1  0.66469860  0.50997829  0.20920649  1
  C  C451  1  0.64520128  0.60817774  0.39555513  1
  C  C452  1  0.58483625  0.67788176  0.40907552  1
  H  H453  1  0.61044294  0.53658649  0.26298572  1
  H  H454  1  0.64905866  0.57785899  0.16531271  1
  C  C455  1  0.53902811  0.58079804  0.04921493  1
  C  C456  1  0.52487377  0.55579745  0.15600813  1
  C  C457  1  0.71303996  0.69300778  0.29450634  1
  H  H458  1  0.55427619  0.74034405  0.18449722  1
  H  H459  1  0.73582266  0.58285148  0.35958585  1
  C  C460  1  0.57169042  0.62089437  0.03824885  1
  C  C461  1  0.72674723  0.53842260  0.04016499  1
  C  C462  1  0.71321384  0.74532646  0.32037133  1
  O  O463  1  0.57746112  0.50703892  0.45074749  1
  H  H464  1  0.50024919  0.52364376  0.15529350  1
  C  C465  1  0.74604508  0.59099444  0.45232511  1
  H  H466  1  0.51727546  0.73327573  0.49254572  1
  C  C467  1  0.66620473  0.63078603  0.49893521  1
  C  C468  1  0.68350475  0.79937655  0.49427806  1
  C  C469  1  0.59961963  0.80973396  0.34605543  1
  C  C470  1  0.61600309  0.86746730  0.04172369  1
  H  H471  1  0.60224174  0.88178774  0.12852185  1
  Cu  Cu472  1  0.65332502  0.99613349  0.16105245  1
  H  H473  1  0.63199441  0.75380308  0.23165724  1
  H  H474  1  0.58387292  0.87431499  0.45483727  1
  Cu  Cu475  1  0.66908069  0.93392968  0.33015052  1
  C  C476  1  0.56215626  0.81956420  0.25493304  1
  O  O477  1  0.73667521  0.85814910  0.11742077  1
  O  O478  1  0.66819953  0.98650435  0.43935188  1
  O  O479  1  0.61321060  0.95623456  0.24897694  1
  H  H480  1  0.55667608  0.90132293  0.30933141  1
  O  O481  1  0.67436422  0.87683282  0.22655579  1
  C  C482  1  0.54337317  0.78182366  0.17946265  1
  C  C483  1  0.63524294  0.77399135  0.31710655  1
  C  C484  1  0.67290676  0.76908182  0.39085536  1
  C  C485  1  0.60925976  0.84352878  0.43871247  1
  C  C486  1  0.69425477  0.86874290  0.12769988  1
  C  C487  1  0.66297619  0.85943541  0.02900972  1
  C  C488  1  0.54517132  0.87021433  0.24978111  1
  Cu  Cu489  1  0.74740634  0.79084152  0.03518043  1
  C  C490  1  0.50739764  0.79611298  0.10270760  1
  C  C491  1  0.50926929  0.87953370  0.17134282  1
  H  H492  1  0.70789985  0.64378776  0.71241546  1
  C  C493  1  0.64540508  0.67007024  0.56206578  1
  C  C494  1  0.73140970  0.62538311  0.64838672  1
  H  H495  1  0.66225283  0.68463265  0.64154050  1
  C  C496  1  0.71493786  0.61493824  0.53386133  1
  O  O497  1  0.53787371  0.58453342  0.84239785  1
  C  C498  1  0.60405145  0.69366308  0.51728405  1
  H  H499  1  0.64850093  0.62004962  0.91100594  1
  C  C500  1  0.52141981  0.56287871  0.93811828  1
  C  C501  1  0.58377735  0.73661075  0.58933307  1
  H  H502  1  0.57911566  0.63770519  0.95501119  1
  H  H503  1  0.65706062  0.53027962  0.95834817  1
  C  C504  1  0.68030074  0.60714793  0.94966389  1
  C  C505  1  0.68562807  0.55597080  0.98292406  1
  O  O506  1  0.52083262  0.53918418  0.55647873  1
  H  H507  1  0.52256747  0.69681101  0.76359063  1
  C  C508  1  0.55066603  0.50352169  0.53062002  1
  O  O509  1  0.67981114  0.71529694  0.89340720  1
  Cu  Cu510  1  0.51357281  0.58026925  0.68314981  1
  C  C511  1  0.51724180  0.74263326  0.92183500  1
  C  C512  1  0.71486573  0.69850644  0.93225753  1
  H  H513  1  0.63921131  0.74562776  0.71877039  1
  C  C514  1  0.71682102  0.64211258  0.96980625  1
  O  O515  1  0.74828678  0.72749901  0.95754875  1
  C  C516  1  0.50309471  0.70321360  0.84784708  1
  H  H517  1  0.73062644  0.71308157  0.52778657  1
  C  C518  1  0.53773941  0.75560166  0.56114593  1
  C  C519  1  0.62833982  0.94786337  0.72618654  1
  H  H520  1  0.53684322  0.93176411  0.96469622  1
  O  O521  1  0.50584569  0.96500324  0.54671216  1
  H  H522  1  0.55171614  0.84787229  0.95030266  1
  O  O523  1  0.71823573  0.79419319  0.56278921  1
  C  C524  1  0.60540250  0.75950176  0.68782340  1
  H  H525  1  0.54677443  0.76838487  0.89618311  1
  C  C526  1  0.58953695  0.84952739  0.94901591  1
  C  C527  1  0.67126231  0.95005800  0.78863646  1
  O  O528  1  0.52165519  0.86420238  0.76935902  1
  H  H529  1  0.73459967  0.86819981  0.63290987  1
  H  H530  1  0.74228610  0.92190697  0.79038256  1
  C  C531  1  0.68553315  0.84239097  0.92548377  1
  C  C532  1  0.54095116  0.82456789  0.71631401  1
  H  H533  1  0.60041593  0.97349409  0.75339622  1
  H  H534  1  0.58858708  0.91207186  0.58980513  1
  C  C535  1  0.67579844  0.98579338  0.88946808  1
  H  H536  1  0.72349366  0.84195614  0.90981342  1
  C  C537  1  0.70660089  0.91838632  0.74819180  1
  C  C538  1  0.62181972  0.91340852  0.63520600  1
  C  C539  1  0.65785433  0.88098475  0.59201116  1
  O  O540  1  0.72272049  0.97054748  0.96138165  1
  C  C541  1  0.58304615  0.80072566  0.74752670  1
  C  C542  1  0.51931955  0.79541219  0.62363094  1
  C  C543  1  0.60968354  0.82620789  0.84942119  1
  C  C544  1  0.65775528  0.82613521  0.83473976  1
  H  H545  1  0.67423197  0.80945663  0.75009732  1
  C  C546  1  0.70173166  0.88688470  0.65143509  1
  C  C547  1  0.64954152  0.83979558  0.50383653  1
  C  C548  1  0.52379657  0.96827845  0.98631995  1
  C  C549  1  0.84736802  0.18707632  0.41716022  1
  C  C550  1  0.79820662  0.08500572  0.25736779  1
  O  O551  1  0.80622006  0.04939704  0.34136993  1
  H  H552  1  0.86886172  0.19967594  0.34205620  1
  C  C553  1  0.80306570  0.16497674  0.40012097  1
  C  C554  1  0.79621068  0.13952102  0.27612068  1
  H  H555  1  0.78051864  0.21538091  0.20966836  1
  C  C556  1  0.78476363  0.17295384  0.18465002  1
  O  O557  1  0.90733611  0.21207394  0.15959121  1
  Cu  Cu558  1  0.89478218  0.14619939  0.12703802  1
  C  C559  1  0.77679576  0.01570661  0.09751096  1
  C  C560  1  0.78479608  0.07049219  0.14126280  1
  C  C561  1  0.81029409  0.06241622  0.46493024  1
  C  C562  1  0.77269707  0.15443369  0.06934095  1
  H  H563  1  0.83238879  0.09767331  0.46951053  1
  H  H564  1  0.85499392  0.01068408  0.22352398  1
  C  C565  1  0.76886156  0.15893362  0.49137399  1
  C  C566  1  0.90562511  0.24704174  0.08194939  1
  C  C567  1  0.77068605  0.10070176  0.04943025  1
  H  H568  1  0.90511030  0.01357227  0.03016263  1
  O  O569  1  0.90326220  0.09893272  0.00910930  1
  C  C570  1  0.99283672  0.44520246  0.05586856  1
  H  H571  1  0.87951763  0.49338494  0.16661865  1
  H  H572  1  0.98078957  0.32418415  0.19988411  1
  C  C573  1  0.77374319  0.46103323  0.11203982  1
  H  H574  1  0.84415714  0.25598928  0.25984866  1
  O  O575  1  0.94466327  0.48042416  0.47436761  1
  C  C576  1  0.84604083  0.36893464  0.01704347  1
  C  C577  1  0.98331824  0.41378749  0.24973462  1
  O  O578  1  0.85834424  0.42410026  0.43722888  1
  O  O579  1  0.88592998  0.34473057  0.46233355  1
  H  H580  1  0.96078905  0.40822322  0.32741837  1
  H  H581  1  0.82441893  0.27772973  0.48452315  1
  C  C582  1  0.85483836  0.37279950  0.44344206  1
  C  C583  1  0.85247282  0.46448328  0.13854508  1
  C  C584  1  0.87377273  0.32606264  0.00817509  1
  C  C585  1  0.87184528  0.28612067  0.09913521  1
  C  C586  1  0.79684278  0.30300839  0.45341657  1
  O  O587  1  0.81063407  0.49009431  0.12232806  1
  H  H588  1  0.84845568  0.43521690  0.21068233  1
  C  C589  1  0.77145761  0.40647236  0.11133121  1
  C  C590  1  0.81028062  0.36931004  0.10997151  1
  H  H591  1  0.92466241  0.43601900  0.14410659  1
  C  C592  1  0.80932781  0.32776076  0.19042473  1
  C  C593  1  0.84038858  0.28546546  0.19133079  1
  C  C594  1  0.77327577  0.39084604  0.39319812  1
  C  C595  1  0.75229409  0.28902464  0.43901440  1
  H  H596  1  0.78147066  0.32220843  0.25879199  1
  H  H597  1  0.78469066  0.43193505  0.37830481  1
  H  H598  1  0.86347804  0.44551321  0.05315357  1
  C  C599  1  0.80584330  0.35516701  0.43145623  1
  C  C600  1  0.96341167  0.43217459  0.14804730  1
  H  H601  1  0.77678335  0.26774738  0.01330493  1
  Cu  Cu602  1  0.86105288  0.13906489  0.92824181  1
  C  C603  1  0.84748097  0.19798758  0.74375419  1
  O  O604  1  0.82577588  0.17834999  0.82918409  1
  Cu  Cu605  1  0.92827758  0.19640187  0.87995309  1
  O  O606  1  0.88806545  0.21242619  0.76073732  1
  C  C607  1  0.83029270  0.18868710  0.62233585  1
  C  C608  1  0.78542499  0.17074663  0.60302606  1
  C  C609  1  0.96141949  0.04643155  0.92832434  1
  O  O610  1  0.95991185  0.13461306  0.90269054  1
  C  C611  1  0.94132677  0.09576896  0.94709037  1
  H  H612  1  0.75933874  0.16870291  0.67679581  1
  C  C613  1  0.75556767  0.24232056  0.95820061  1
  C  C614  1  0.93842226  0.00469340  0.98205032  1
  H  H615  1  0.82822130  0.02900071  0.50446561  1
  C  C616  1  0.86090967  0.20128280  0.52945079  1
  H  H617  1  0.89540891  0.21942169  0.55450053  1
  H  H618  1  0.77642821  0.06774731  0.51332099  1
  C  C619  1  0.75035884  0.18966844  0.98097035  1
  H  H620  1  0.76026835  0.08510595  0.96272930  1
  O  O621  1  0.93029910  0.24859192  0.98841975  1
  O  O622  1  0.98775742  0.49439470  0.63516654  1
  H  H623  1  0.85021326  0.40136271  0.95734577  1
  C  C624  1  0.77765743  0.40032627  0.84325125  1
  C  C625  1  0.81597870  0.39241639  0.77163897  1
  O  O626  1  0.88240102  0.42866164  0.68361135  1
  C  C627  1  0.82288558  0.34583622  0.71273816  1
  C  C628  1  0.98277641  0.49598871  0.52057521  1
  C  C629  1  0.79470805  0.30403562  0.73646157  1
  H  H630  1  0.85302770  0.34443765  0.65726043  1
  H  H631  1  0.89512080  0.32266305  0.93588642  1
  Cu  Cu632  1  0.88994287  0.46619939  0.55063287  1
  H  H633  1  0.77176382  0.43867676  0.87493074  1
  C  C634  1  0.97416825  0.46813903  0.94687657  1
  O  O635  1  0.84730184  0.47449271  0.81799497  1
  H  H636  1  0.80347534  0.26432546  0.70745015  1
  C  C637  1  0.75619507  0.31044555  0.81411894  1
  C  C638  1  0.84930204  0.43521584  0.75525145  1
  O  O639  1  0.93193733  0.47542483  0.93118579  1
  O  O640  1  0.99758279  0.34600903  0.77991772  1
  C  C641  1  0.83858568  0.67105845  0.20009891  1
  O  O642  1  0.84298219  0.62538041  0.21721613  1
  C  C643  1  0.79380230  0.69876703  0.23822924  1
  H  H644  1  0.93589445  0.68124967  0.11041298  1
  O  O645  1  0.87138116  0.69801429  0.16568801  1
  H  H646  1  0.75590258  0.62766038  0.25052821  1
  C  C647  1  0.75449503  0.66997392  0.26114272  1
  H  H648  1  0.79622928  0.56146533  0.09145521  1
  C  C649  1  0.95508274  0.69345999  0.02649710  1
  O  O650  1  0.92663198  0.58914237  0.05033572  1
  H  H651  1  0.81117106  0.55175718  0.42102192  1
  H  H652  1  0.97772907  0.51878078  0.29655384  1
  H  H653  1  0.78388511  0.65569869  0.02372702  1
  C  C654  1  0.76245521  0.57466376  0.05564930  1
  H  H655  1  0.95263148  0.57699707  0.49956575  1
  C  C656  1  0.99729557  0.64380727  0.47982656  1
  C  C657  1  0.75793341  0.62495760  0.01815453  1
  C  C658  1  0.78800222  0.57213862  0.48629628  1
  C  C659  1  0.97407432  0.74280886  0.01550811  1
  C  C660  1  0.84357407  0.97389206  0.18553668  1
  O  O661  1  0.94611033  0.91385900  0.30885646  1
  H  H662  1  0.75445999  0.81579068  0.30791423  1
  C  C663  1  0.79422019  0.75282249  0.25391910  1
  H  H664  1  0.77277055  0.75532721  0.46951847  1
  C  C665  1  0.86967965  0.92993527  0.21330245  1
  H  H666  1  0.96784386  0.77144666  0.07930755  1
  C  C667  1  0.75422475  0.77562061  0.29283999  1
  H  H668  1  0.82493421  0.77640671  0.23302481  1
  C  C669  1  0.87122529  0.87577759  0.20371293  1
  C  C670  1  0.91102304  0.90739345  0.26150625  1
  H  H671  1  0.79718740  0.93453470  0.07374894  1
  C  C672  1  0.80356024  0.97063966  0.11997877  1
  O  O673  1  0.85556792  0.83666174  0.17193777  1
  H  H674  1  0.94283493  0.92640216  0.03362343  1
  O  O675  1  0.94168572  0.57323221  0.87083470  1
  Cu  Cu676  1  0.89711695  0.51955136  0.82878332  1
  C  C677  1  0.97108587  0.66999391  0.81491291  1
  C  C678  1  0.86991408  0.70905022  0.75289617  1
  H  H679  1  0.96817614  0.64205901  0.73928635  1
  C  C680  1  0.84595467  0.55990620  0.63922572  1
  C  C681  1  0.80263250  0.58092124  0.60560056  1
  O  O682  1  0.86355920  0.56647822  0.74194352  1
  H  H683  1  0.88477365  0.67483215  0.79263135  1
  H  H684  1  0.83477000  0.72636553  0.91620075  1
  H  H685  1  0.78595682  0.61307458  0.77704390  1
  C  C686  1  0.92353417  0.69794512  0.58317922  1
  C  C687  1  0.77566618  0.61102305  0.68227981  1
  O  O688  1  0.87069476  0.53891031  0.55637359  1
  C  C689  1  0.95771462  0.65831481  0.93150836  1
  C  C690  1  0.88464793  0.72654205  0.63972041  1
  C  C691  1  0.84172182  0.73895859  0.82512193  1
  C  C692  1  0.94007718  0.60409693  0.95828626  1
  C  C693  1  0.95978226  0.72960477  0.54833627  1
  H  H694  1  0.77118227  0.74060583  0.62947223  1
  C  C695  1  0.91909823  0.64471158  0.56773811  1
  H  H696  1  0.88878298  0.62794478  0.60093890  1
  C  C697  1  0.99227920  0.71862039  0.80043289  1
  C  C698  1  0.75050917  0.74747838  0.54775608  1
  C  C699  1  0.95646409  0.61812130  0.51517442  1
  C  C700  1  0.99568436  0.69707172  0.50072579  1
  H  H701  1  0.87807550  0.82766949  0.86216032  1
  C  C702  1  0.98680700  0.85428169  0.89855751  1
  H  H703  1  0.90184632  0.79403133  0.98527421  1
  C  C704  1  0.80321607  0.82293830  0.85216604  1
  C  C705  1  0.95977701  0.95730269  0.97839941  1
  O  O706  1  0.79979067  0.81279977  0.96317100  1
  C  C707  1  0.99256211  0.75313590  0.89748317  1
  C  C708  1  0.82944641  0.78580092  0.77853472  1
  C  C709  1  0.99519559  0.81173335  0.52653843  1
  O  O710  1  0.94125794  0.85616079  0.91502051  1
  C  C711  1  0.91051149  0.81246321  0.89737901  1
  H  H712  1  0.92223651  0.77854751  0.84325596  1
  C  C713  1  0.84079370  0.80476138  0.66399411  1
  O  O714  1  0.95906171  0.78034647  0.56234497  1
  C  C715  1  0.86663381  0.77522145  0.58896592  1
  O  O716  1  0.78730737  0.86051252  0.80426451  1
  H  H717  1  0.99312955  0.85460736  0.53495971  1
  H  H718  1  0.82925136  0.84329104  0.63310395  1
  H  H719  1  0.87813554  0.78893779  0.50357552  1
