# generated using pymatgen
data_CuH13C21O5
_symmetry_space_group_name_H-M   'P 1'
_cell_length_a   33.34317478
_cell_length_b   29.75290179
_cell_length_c   8.67179315
_cell_angle_alpha   90.00000000
_cell_angle_beta   90.00000000
_cell_angle_gamma   90.00000000
_symmetry_Int_Tables_number   1
_chemical_formula_structural   CuH13C21O5
_chemical_formula_sum   'Cu18 H234 C378 O90'
_cell_volume   8602.90619942
_cell_formula_units_Z   18
loop_
 _symmetry_equiv_pos_site_id
 _symmetry_equiv_pos_as_xyz
  1  'x, y, z'
loop_
 _atom_site_type_symbol
 _atom_site_label
 _atom_site_symmetry_multiplicity
 _atom_site_fract_x
 _atom_site_fract_y
 _atom_site_fract_z
 _atom_site_occupancy
  Cu  Cu0  1  0.21293605  0.16826850  0.27935648  1
  H  H1  1  0.09545451  0.15244858  0.23987341  1
  C  C2  1  0.08180191  0.16970786  0.33951043  1
  C  C3  1  0.04268947  0.18406348  0.33612497  1
  H  H4  1  0.02233043  0.18155266  0.23335453  1
  O  O5  1  0.16429904  0.14064075  0.36238821  1
  O  O6  1  0.24119079  0.21969670  0.35111560  1
  O  O7  1  0.23993121  0.11420637  0.33264520  1
  C  C8  1  0.14537920  0.21654526  0.06310289  1
  C  C9  1  0.18904102  0.20498744  0.03209293  1
  O  O10  1  0.12072072  0.19080885  0.02309170  1
  C  C11  1  0.21767153  0.23981737  0.04792735  1
  O  O12  1  0.01021287  0.01016628  0.17638813  1
  H  H13  1  0.00714416  0.12137155  0.44064124  1
  C  C14  1  0.02854238  0.20683642  0.46859677  1
  C  C15  1  0.10496473  0.16930006  0.47698592  1
  C  C16  1  0.14590564  0.15481028  0.48251110  1
  H  H17  1  0.13124008  0.34274875  0.43408690  1
  C  C18  1  0.07613211  0.43788503  0.36490860  1
  C  C19  1  0.14782763  0.45689770  0.39341273  1
  C  C20  1  0.15460369  0.41057420  0.42021963  1
  C  C21  1  0.22015638  0.47072807  0.43263063  1
  Cu  Cu22  1  0.09506424  0.28212668  0.23745468  1
  C  C23  1  0.08977932  0.42379710  0.01758522  1
  H  H24  1  0.01749412  0.46426425  0.05050837  1
  H  H25  1  0.20539963  0.27416742  0.06303120  1
  O  O26  1  0.13774991  0.25748836  0.10820131  1
  O  O27  1  0.16924355  0.45193910  0.04599312  1
  O  O28  1  0.00141094  0.32525925  0.08385936  1
  O  O29  1  0.01854226  0.36911691  0.35307450  1
  H  H30  1  0.04367745  0.44587723  0.34626694  1
  H  H31  1  0.03410152  0.39560437  0.10093562  1
  O  O32  1  0.06199520  0.29971784  0.08011843  1
  C  C33  1  0.02632113  0.29589782  0.05093765  1
  H  H34  1  0.10431351  0.42430770  0.13525995  1
  H  H35  1  0.22435454  0.43354294  0.41988240  1
  H  H36  1  0.18356739  0.39499327  0.43661382  1
  C  C37  1  0.05439835  0.35674438  0.37696069  1
  O  O38  1  0.06210899  0.31514141  0.38509953  1
  C  C39  1  0.18187574  0.48893369  0.41668350  1
  C  C40  1  0.10658020  0.46860630  0.36059635  1
  C  C41  1  0.12515503  0.37788583  0.41010934  1
  C  C42  1  0.08494972  0.39166723  0.38537851  1
  C  C43  1  0.08760159  0.18687213  0.61338639  1
  H  H44  1  0.10348566  0.18540287  0.72622701  1
  C  C45  1  0.05064356  0.20785976  0.60853517  1
  H  H46  1  0.03590651  0.22039246  0.71215275  1
  H  H47  1  0.03526386  0.02868605  0.64740259  1
  O  O48  1  0.16290198  0.15617539  0.61368538  1
  Cu  Cu49  1  0.21906490  0.16080719  0.64464413  1
  H  H50  1  0.02462673  0.14707215  0.89624041  1
  C  C51  1  0.01036174  0.17772766  0.91325327  1
  C  C52  1  0.00737524  0.04464639  0.69095012  1
  O  O53  1  0.00749588  0.08531187  0.74460196  1
  H  H54  1  0.18104809  0.13569216  0.96144777  1
  H  H55  1  0.06591625  0.21746129  0.98789662  1
  C  C56  1  0.03198896  0.21592974  0.96127501  1
  C  C57  1  0.24403074  0.15277135  0.97255129  1
  C  C58  1  0.20315628  0.16292546  0.98686681  1
  C  C59  1  0.03189795  0.40771781  0.85069322  1
  H  H60  1  0.04345802  0.42183305  0.60665497  1
  H  H61  1  0.11263051  0.44413770  0.62716421  1
  H  H62  1  0.01524649  0.34564170  0.68771558  1
  H  H63  1  0.01618705  0.28778551  0.57096779  1
  O  O64  1  0.17463065  0.46171577  0.79584102  1
  C  C65  1  0.11333920  0.43562194  0.88697753  1
  C  C66  1  0.15395500  0.44953471  0.91132748  1
  C  C67  1  0.09744038  0.43460076  0.73219719  1
  C  C68  1  0.05829407  0.41883026  0.72561809  1
  C  C69  1  0.00797685  0.25392996  0.98090679  1
  C  C70  1  0.05144752  0.40674549  0.99942238  1
  C  C71  1  0.21242267  0.63562132  0.29899488  1
  H  H72  1  0.12517570  0.68919962  0.23198622  1
  H  H73  1  0.13242838  0.60762806  0.18779954  1
  C  C74  1  0.13809207  0.63123491  0.09402434  1
  C  C75  1  0.13179390  0.67724492  0.11709296  1
  H  H76  1  0.07382625  0.71126930  0.22477827  1
  C  C77  1  0.22041169  0.68245759  0.30294680  1
  H  H78  1  0.20430599  0.61711326  0.19141200  1
  H  H79  1  0.21758105  0.70190993  0.19708522  1
  H  H80  1  0.02663753  0.71244438  0.13257087  1
  C  C81  1  0.05745449  0.72504857  0.11487203  1
  O  O82  1  0.15922513  0.54308344  0.04965831  1
  C  C83  1  0.17622260  0.53550007  0.43584893  1
  Cu  Cu84  1  0.20475808  0.50161395  0.08441848  1
  O  O85  1  0.23755087  0.55471467  0.09209562  1
  C  C86  1  0.23335326  0.70385035  0.43721286  1
  C  C87  1  0.21327952  0.56028449  0.44692201  1
  O  O88  1  0.13814945  0.55168860  0.43409850  1
  H  H89  1  0.09928173  0.50411467  0.34398938  1
  H  H90  1  0.14865454  0.62680762  0.43581200  1
  C  C91  1  0.21594954  0.61161424  0.43904905  1
  H  H92  1  0.07193903  0.70356325  0.02157587  1
  C  C93  1  0.13522219  0.75797635  0.01632784  1
  H  H94  1  0.07571310  0.97080381  0.24690288  1
  H  H95  1  0.06067888  0.88209571  0.46604882  1
  C  C96  1  0.06976265  0.94178019  0.17584936  1
  C  C97  1  0.00459828  0.97801244  0.09641051  1
  C  C98  1  0.12538711  0.82890149  0.40472361  1
  C  C99  1  0.08963414  0.81111170  0.45564108  1
  C  C100  1  0.03286426  0.87764241  0.39520448  1
  O  O101  1  0.06601612  0.77163034  0.10557188  1
  C  C102  1  0.10158526  0.78458705  0.06870164  1
  Cu  Cu103  1  0.23749437  0.82692096  0.20542736  1
  C  C104  1  0.19016322  0.86588911  0.43668968  1
  C  C105  1  0.24142560  0.75311876  0.41491092  1
  C  C106  1  0.03540999  0.94031201  0.09066985  1
  H  H107  1  0.15869160  0.88359147  0.01503272  1
  C  C108  1  0.11595054  0.83060274  0.06012240  1
  O  O109  1  0.19603215  0.86468153  0.29276546  1
  H  H110  1  0.02607444  0.91342066  0.35156472  1
  C  C111  1  0.15201668  0.84822667  0.00390549  1
  H  H112  1  0.04010924  0.85389236  0.29719317  1
  O  O113  1  0.22650406  0.77261634  0.29502841  1
  H  H114  1  0.13501672  0.82773463  0.28217056  1
  H  H115  1  0.12541438  0.90853102  0.22775942  1
  H  H116  1  0.06937513  0.79374866  0.38021589  1
  C  C117  1  0.09617193  0.90469732  0.17185054  1
  C  C118  1  0.08423741  0.86599668  0.08660992  1
  C  C119  1  0.02149677  0.90060584  0.01304137  1
  C  C120  1  0.04573353  0.86363210  0.01081623  1
  H  H121  1  0.17232648  0.63599304  0.71646662  1
  C  C122  1  0.23166512  0.63275590  0.57611978  1
  O  O123  1  0.17061915  0.55377583  0.79820812  1
  H  H124  1  0.16135201  0.71492703  0.75840510  1
  H  H125  1  0.15316467  0.59466496  0.61221630  1
  Cu  Cu126  1  0.21485833  0.50720451  0.79840933  1
  C  C127  1  0.15812779  0.64623988  0.82564521  1
  C  C128  1  0.15117407  0.69177893  0.84787034  1
  C  C129  1  0.23815654  0.67880976  0.57569537  1
  C  C130  1  0.15868827  0.56834721  0.92890095  1
  H  H131  1  0.23510126  0.61341501  0.68670536  1
  H  H132  1  0.19378343  0.74874703  0.92979926  1
  C  C133  1  0.15132241  0.61587612  0.94972554  1
  H  H134  1  0.00532032  0.74013909  0.94295039  1
  C  C135  1  0.13621413  0.70777117  0.99130257  1
  H  H136  1  0.10419458  0.61003204  0.52750742  1
  C  C137  1  0.13570998  0.59862669  0.50187976  1
  C  C138  1  0.00284555  0.76488139  0.85211956  1
  C  C139  1  0.00103698  0.83460343  0.60469536  1
  H  H140  1  0.03546065  0.83305050  0.94942983  1
  C  C141  1  0.18388415  0.81934965  0.96039703  1
  C  C142  1  0.03598613  0.81020993  0.66544347  1
  C  C143  1  0.23875770  0.87923224  0.93540554  1
  H  H144  1  0.16877719  0.86778197  0.74201148  1
  O  O145  1  0.21837367  0.87596020  0.52522554  1
  H  H146  1  0.07050454  0.76207878  0.80377117  1
  C  C147  1  0.17270659  0.77343966  0.96824060  1
  C  C148  1  0.04008860  0.77627051  0.77780410  1
  H  H149  1  0.09742637  0.84681081  0.82948251  1
  C  C150  1  0.22457244  0.83595121  0.90934187  1
  H  H151  1  0.23832842  0.76823275  0.82464091  1
  C  C152  1  0.10755641  0.84087438  0.70790283  1
  C  C153  1  0.07805277  0.82155540  0.61220481  1
  C  C154  1  0.14529197  0.85466134  0.66348610  1
  C  C155  1  0.15186379  0.85106793  0.50608380  1
  H  H156  1  0.21737329  0.90690712  0.96506219  1
  C  C157  1  0.30754705  0.11196550  0.40999168  1
  C  C158  1  0.38883591  0.11186230  0.35168420  1
  C  C159  1  0.45438508  0.15541622  0.39215010  1
  C  C160  1  0.32020117  0.10317982  0.25655001  1
  C  C161  1  0.43072951  0.12250848  0.30906744  1
  C  C162  1  0.36066183  0.09995967  0.23068899  1
  C  C163  1  0.26434993  0.11028534  0.44108315  1
  H  H164  1  0.29801109  0.09551855  0.16082996  1
  C  C165  1  0.44402405  0.09542559  0.17574370  1
  H  H166  1  0.37135639  0.09642211  0.11248519  1
  C  C167  1  0.48123557  0.10827329  0.14319341  1
  H  H168  1  0.42665986  0.06470453  0.12662821  1
  H  H169  1  0.34387814  0.04859359  0.49171270  1
  C  C170  1  0.25848961  0.23058370  0.03003572  1
  H  H171  1  0.47074082  0.22975132  0.03850265  1
  C  C172  1  0.34675660  0.01111047  0.49018448  1
  C  C173  1  0.25740574  0.22832543  0.48553965  1
  C  C174  1  0.34477330  0.21825642  0.01495358  1
  H  H175  1  0.33048394  0.24914279  0.05132802  1
  O  O176  1  0.49814102  0.03707671  0.49092441  1
  C  C177  1  0.49297683  0.16091022  0.33250378  1
  H  H178  1  0.46497079  0.24135306  0.48879844  1
  C  C179  1  0.25480876  0.49642719  0.46512206  1
  C  C180  1  0.27878967  0.27032315  0.49591943  1
  C  C181  1  0.36426637  0.40007816  0.17446334  1
  H  H182  1  0.26519286  0.28580479  0.25507879  1
  C  C183  1  0.45387514  0.34806264  0.06464124  1
  C  C184  1  0.38135822  0.38282101  0.03557889  1
  C  C185  1  0.41199866  0.34459801  0.04684731  1
  C  C186  1  0.47356724  0.30479209  0.04697301  1
  C  C187  1  0.45409316  0.26271502  0.04520781  1
  O  O188  1  0.47449934  0.38457182  0.08350883  1
  H  H189  1  0.27802902  0.26016620  0.03546065  1
  H  H190  1  0.37513984  0.38831270  0.29150104  1
  H  H191  1  0.38547451  0.47198153  0.06883325  1
  H  H192  1  0.47603579  0.45854946  0.13330546  1
  C  C193  1  0.45449213  0.42689266  0.11744934  1
  C  C194  1  0.28230521  0.29632018  0.35906037  1
  O  O195  1  0.48104928  0.31359767  0.47195528  1
  O  O196  1  0.25327638  0.46082406  0.10522997  1
  H  H197  1  0.43164653  0.42274393  0.20951319  1
  C  C198  1  0.32975454  0.42660725  0.15591362  1
  H  H199  1  0.31739658  0.44129537  0.25949091  1
  H  H200  1  0.30096231  0.36163720  0.27208010  1
  C  C201  1  0.30148408  0.33840887  0.37124708  1
  H  H202  1  0.43802759  0.43391394  0.00152805  1
  H  H203  1  0.44651829  0.43952953  0.45746514  1
  H  H204  1  0.35694909  0.30655387  0.01530361  1
  C  C205  1  0.41201673  0.26392119  0.02424226  1
  C  C206  1  0.31238314  0.43254024  0.00569443  1
  C  C207  1  0.38922834  0.30442028  0.02912370  1
  C  C208  1  0.37824400  0.14209408  0.90951209  1
  C  C209  1  0.38444101  0.09458628  0.84445299  1
  C  C210  1  0.42118476  0.07850077  0.79577091  1
  C  C211  1  0.33638388  0.13958855  0.92502692  1
  C  C212  1  0.34815092  0.07345671  0.82866951  1
  H  H213  1  0.34356003  0.03912465  0.78189732  1
  O  O214  1  0.31759725  0.09604999  0.87367897  1
  H  H215  1  0.42317116  0.04551873  0.74446966  1
  C  C216  1  0.45758838  0.10183292  0.82158434  1
  H  H217  1  0.43787543  0.17739187  0.94024042  1
  C  C218  1  0.40476059  0.17797759  0.95266959  1
  H  H219  1  0.45529698  0.12996876  0.89994286  1
  C  C220  1  0.31906099  0.17993271  0.98047007  1
  H  H221  1  0.32015447  0.13392611  0.64004209  1
  H  H222  1  0.44868759  0.23518278  0.67716089  1
  C  C223  1  0.38732620  0.21928393  0.99225181  1
  H  H224  1  0.30285330  0.00390577  0.88098026  1
  H  H225  1  0.25214692  0.11712583  0.94402437  1
  O  O226  1  0.25578042  0.20364052  0.60390027  1
  O  O227  1  0.25276688  0.11706179  0.57843452  1
  H  H228  1  0.39760918  0.13627624  0.59324069  1
  C  C229  1  0.33364176  0.12263157  0.53254003  1
  C  C230  1  0.46254526  0.21422379  0.57926348  1
  H  H231  1  0.49423291  0.20800847  0.62054553  1
  C  C232  1  0.49445286  0.08800066  0.75957557  1
  C  C233  1  0.37459527  0.12411601  0.50280310  1
  O  O234  1  0.44027309  0.17964654  0.52056832  1
  C  C235  1  0.27417798  0.18576140  0.99267112  1
  H  H236  1  0.49679776  0.48532658  0.59882670  1
  C  C237  1  0.40085649  0.49821200  0.57725453  1
  O  O238  1  0.49759008  0.28774027  0.68992283  1
  O  O239  1  0.40026047  0.39174712  0.55551674  1
  C  C240  1  0.44019521  0.41410950  0.55271809  1
  C  C241  1  0.36830356  0.41948012  0.55038610  1
  C  C242  1  0.29152113  0.46966070  0.50544432  1
  H  H243  1  0.33616748  0.33107871  0.74957215  1
  H  H244  1  0.38711832  0.38757595  0.78382254  1
  O  O245  1  0.25895970  0.46210843  0.85326787  1
  C  C246  1  0.29911327  0.28281467  0.63736634  1
  C  C247  1  0.32939673  0.40163845  0.53147447  1
  H  H248  1  0.44465586  0.43222641  0.65906145  1
  C  C249  1  0.27292517  0.45148135  0.98772532  1
  H  H250  1  0.29821939  0.25909959  0.74079561  1
  C  C251  1  0.36860622  0.39572431  0.88195966  1
  C  C252  1  0.36517884  0.46691756  0.54680465  1
  C  C253  1  0.32931375  0.49094687  0.53257269  1
  H  H254  1  0.32209748  0.42847361  0.75514094  1
  H  H255  1  0.40128459  0.47793060  0.81299994  1
  C  C256  1  0.32072030  0.32179525  0.64361735  1
  C  C257  1  0.33351288  0.41970946  0.87245670  1
  H  H258  1  0.46089779  0.38386603  0.54380813  1
  C  C259  1  0.29212761  0.42198434  0.51665670  1
  C  C260  1  0.32055251  0.35138090  0.51148248  1
  H  H261  1  0.26447100  0.40187046  0.50167149  1
  C  C262  1  0.42438801  0.59836909  0.15496627  1
  C  C263  1  0.31071288  0.58319502  0.17299596  1
  C  C264  1  0.34833675  0.59279793  0.22459090  1
  C  C265  1  0.43260659  0.64227404  0.19740232  1
  C  C266  1  0.47199601  0.65062727  0.25346346  1
  H  H267  1  0.40874221  0.66791016  0.18007697  1
  C  C268  1  0.44688393  0.55809350  0.15430981  1
  H  H269  1  0.28579662  0.58075148  0.25718768  1
  H  H270  1  0.35761538  0.59950607  0.34854556  1
  C  C271  1  0.48146471  0.69658374  0.30671552  1
  C  C272  1  0.48772802  0.57248068  0.19141359  1
  O  O273  1  0.43773177  0.51709082  0.11686785  1
  C  C274  1  0.37923147  0.59879504  0.11367158  1
  H  H275  1  0.42074264  0.72597150  0.26097219  1
  C  C276  1  0.45212410  0.73134368  0.30372562  1
  C  C277  1  0.30340728  0.57641160  0.01339352  1
  H  H278  1  0.45377739  0.58618345  0.42372018  1
  H  H279  1  0.37481645  0.52232697  0.18040103  1
  C  C280  1  0.39475096  0.50720777  0.09093748  1
  H  H281  1  0.40852884  0.52417862  0.34046224  1
  C  C282  1  0.41440183  0.52990986  0.46190345  1
  H  H283  1  0.49672896  0.74413184  0.11094280  1
  C  C284  1  0.25196690  0.54362115  0.47681098  1
  H  H285  1  0.27745006  0.56627725  0.48860768  1
  C  C286  1  0.37229864  0.99582815  0.36256433  1
  C  C287  1  0.46558849  0.77248895  0.36053600  1
  C  C288  1  0.31146464  0.85630436  0.34798714  1
  H  H289  1  0.27265024  0.93613830  0.20928658  1
  C  C290  1  0.28312745  0.95673363  0.10756921  1
  O  O291  1  0.28390150  0.99460109  0.15526939  1
  O  O292  1  0.29893521  0.87398508  0.47413603  1
  C  C293  1  0.38061530  0.85142007  0.46239943  1
  C  C294  1  0.43258572  0.80761051  0.33809420  1
  H  H295  1  0.34657308  0.81626632  0.10377322  1
  H  H296  1  0.41605056  0.78312574  0.10089273  1
  C  C297  1  0.40673205  0.80370241  0.20001757  1
  H  H298  1  0.35171192  0.90158558  0.06566304  1
  C  C299  1  0.42030495  0.83606451  0.46255570  1
  O  O300  1  0.28815363  0.85088351  0.23603457  1
  C  C301  1  0.35339398  0.84203608  0.34066700  1
  C  C302  1  0.36747856  0.82195774  0.20221878  1
  O  O303  1  0.39181616  0.98325565  0.26017759  1
  C  C304  1  0.45393943  0.56510239  0.66477336  1
  C  C305  1  0.44208492  0.53438701  0.78190685  1
  C  C306  1  0.32701970  0.69273987  0.78770806  1
  H  H307  1  0.32940939  0.57392943  0.77788959  1
  C  C308  1  0.35843720  0.69967641  0.67748226  1
  C  C309  1  0.47785198  0.60353306  0.72048857  1
  H  H310  1  0.39709024  0.59355746  0.86729186  1
  H  H311  1  0.45220316  0.53722288  0.89894921  1
  H  H312  1  0.32050495  0.65880677  0.83323744  1
  O  O313  1  0.44897048  0.72728091  0.70354106  1
  C  C314  1  0.46246609  0.73231362  0.83627060  1
  O  O315  1  0.48765834  0.63241517  0.61931064  1
  C  C316  1  0.33320525  0.58100633  0.90155134  1
  C  C317  1  0.37612531  0.65802977  0.60311056  1
  O  O318  1  0.36221147  0.62137823  0.63340853  1
  C  C319  1  0.30704947  0.73024538  0.83780759  1
  Cu  Cu320  1  0.45546295  0.67854697  0.57692393  1
  O  O321  1  0.48891132  0.60686079  0.85855631  1
  C  C322  1  0.37112077  0.59333170  0.95270910  1
  O  O323  1  0.45678539  0.70364815  0.94422159  1
  H  H324  1  0.28210545  0.72466627  0.91241348  1
  Cu  Cu325  1  0.49595306  0.65693075  0.97541521  1
  O  O326  1  0.25297596  0.55257785  0.84282793  1
  C  C327  1  0.36856928  0.74266336  0.62694460  1
  H  H328  1  0.25127219  0.69495653  0.67992364  1
  H  H329  1  0.33081076  0.52800720  0.53435314  1
  C  C330  1  0.44201696  0.56184516  0.51084214  1
  C  C331  1  0.41457689  0.50249236  0.73084961  1
  C  C332  1  0.26256893  0.55967032  0.98161558  1
  H  H333  1  0.39338104  0.52417068  0.97599045  1
  H  H334  1  0.39363966  0.74363388  0.53524244  1
  O  O335  1  0.40505706  0.66630367  0.50556354  1
  H  H336  1  0.35721382  0.93584070  0.90764454  1
  C  C337  1  0.28084537  0.88784241  0.92230085  1
  H  H338  1  0.44225633  0.84376455  0.55609057  1
  H  H339  1  0.37090505  0.87105153  0.55367779  1
  C  C340  1  0.34664694  0.78097671  0.66583710  1
  O  O341  1  0.34953042  0.86331397  0.86222269  1
  C  C342  1  0.36410902  0.90178262  0.95052066  1
  H  H343  1  0.31534711  0.91767623  0.67373484  1
  C  C344  1  0.28973843  0.93687192  0.95363480  1
  H  H345  1  0.39787300  0.89858531  0.95404604  1
  H  H346  1  0.35212972  0.81495628  0.63497180  1
  C  C347  1  0.33085568  0.98356709  0.59964387  1
  Cu  Cu348  1  0.25744963  0.83734300  0.57044463  1
  C  C349  1  0.29163767  0.81285453  0.84023687  1
  C  C350  1  0.31727973  0.95255540  0.70004190  1
  H  H351  1  0.47462423  0.80323256  0.65385569  1
  C  C352  1  0.30938009  0.85616870  0.87302956  1
  C  C353  1  0.31731332  0.77441165  0.77967847  1
  C  C354  1  0.30052260  0.96837441  0.84544984  1
  C  C355  1  0.48468539  0.77469353  0.87884430  1
  C  C356  1  0.48776197  0.80853469  0.76832829  1
  C  C357  1  0.25066809  0.80272902  0.84863560  1
  O  O358  1  0.25635422  0.77556229  0.51960859  1
  H  H359  1  0.70776782  0.10228029  0.25103686  1
  C  C360  1  0.52911663  0.18619444  0.39586256  1
  C  C361  1  0.53798030  0.23327545  0.36759020  1
  H  H362  1  0.66724602  0.12708762  0.16589218  1
  C  C363  1  0.69751422  0.11611655  0.13368355  1
  H  H364  1  0.61085249  0.06037581  0.21642948  1
  C  C365  1  0.73362817  0.02749745  0.39956575  1
  H  H366  1  0.69595544  0.08451707  0.06598204  1
  C  C367  1  0.73958709  0.02589218  0.08078078  1
  C  C368  1  0.50831295  0.13793320  0.19411727  1
  H  H369  1  0.73320248  0.22637092  0.09009719  1
  O  O370  1  0.72985400  0.18674999  0.40560581  1
  O  O371  1  0.65449008  0.23465547  0.09885648  1
  H  H372  1  0.53955007  0.13823085  0.14787155  1
  O  O373  1  0.72199317  0.14896505  0.05532156  1
  O  O374  1  0.56271943  0.04062047  0.48897567  1
  C  C375  1  0.61486445  0.05638694  0.09112808  1
  C  C376  1  0.55355210  0.16106333  0.49665623  1
  C  C377  1  0.57557955  0.24525414  0.04780460  1
  H  H378  1  0.58813249  0.21064287  0.04275223  1
  C  C379  1  0.57420411  0.24681740  0.42576849  1
  C  C380  1  0.61955930  0.01175001  0.01906338  1
  H  H381  1  0.58957825  0.42887180  0.38298627  1
  C  C382  1  0.58475144  0.32429328  0.12337853  1
  H  H383  1  0.52761708  0.47442249  0.42777266  1
  C  C384  1  0.53472924  0.25357068  0.02944219  1
  C  C385  1  0.54432603  0.33160328  0.11071435  1
  C  C386  1  0.59062517  0.48243276  0.12191741  1
  H  H387  1  0.53135419  0.36491422  0.13467690  1
  C  C388  1  0.51754619  0.29593539  0.06453965  1
  C  C389  1  0.54971193  0.37302251  0.46414714  1
  H  H390  1  0.60206328  0.35417048  0.15616909  1
  H  H391  1  0.52137925  0.25432129  0.28865548  1
  O  O392  1  0.62666500  0.42354356  0.00998795  1
  Cu  Cu393  1  0.67918349  0.30053879  0.41053010  1
  Cu  Cu394  1  0.70203672  0.49372385  0.13899332  1
  H  H395  1  0.53237709  0.36955027  0.35713656  1
  O  O396  1  0.65736181  0.45740039  0.19795045  1
  C  C397  1  0.58113064  0.40420271  0.47051432  1
  O  O398  1  0.73842644  0.44604806  0.11700831  1
  H  H399  1  0.58308569  0.28201588  0.41539887  1
  C  C400  1  0.55958995  0.48197487  0.01513588  1
  C  C401  1  0.59903918  0.27928604  0.11323796  1
  O  O402  1  0.66137518  0.30230903  0.21149992  1
  C  C403  1  0.64024196  0.27097475  0.15328841  1
  C  C404  1  0.62716213  0.45359860  0.10203694  1
  O  O405  1  0.64970876  0.11353602  0.74390553  1
  H  H406  1  0.65530261  0.04176212  0.82795900  1
  Cu  Cu407  1  0.65655003  0.22201440  0.88687101  1
  Cu  Cu408  1  0.69719739  0.12514390  0.65896338  1
  O  O409  1  0.65751864  0.21753938  0.67009347  1
  C  C410  1  0.52838974  0.07815392  0.71219914  1
  C  C411  1  0.63244587  0.12480039  0.87979043  1
  H  H412  1  0.55790021  0.09317333  0.76124587  1
  O  O413  1  0.62503140  0.16943750  0.88660847  1
  H  H414  1  0.60885677  0.15606157  0.64393782  1
  H  H415  1  0.74371828  0.01921190  0.95645278  1
  C  C416  1  0.64115024  0.01138605  0.88174834  1
  C  C417  1  0.63473801  0.24015793  0.58091757  1
  H  H418  1  0.51499859  0.22381051  0.99123960  1
  C  C419  1  0.74013803  0.23718575  0.96964461  1
  C  C420  1  0.62358297  0.09250338  0.99673719  1
  C  C421  1  0.58793690  0.17536441  0.56895901  1
  C  C422  1  0.59746576  0.21958719  0.52838689  1
  O  O423  1  0.74568717  0.12969872  0.56196810  1
  C  C424  1  0.53045471  0.04750381  0.54969600  1
  H  H425  1  0.54306457  0.12558320  0.51902304  1
  H  H426  1  0.73374941  0.02637143  0.52569125  1
  C  C427  1  0.71063976  0.32958463  0.69580133  1
  H  H428  1  0.74732524  0.40781482  0.53204810  1
  H  H429  1  0.61370849  0.38282005  0.85522522  1
  O  O430  1  0.71319895  0.33937360  0.55272326  1
  H  H431  1  0.68102034  0.40426514  0.60855963  1
  H  H432  1  0.55818333  0.32458247  0.82319788  1
  C  C433  1  0.69863308  0.47497865  0.66821911  1
  C  C434  1  0.52798666  0.47657178  0.55339606  1
  O  O435  1  0.64069671  0.28112209  0.55070396  1
  C  C436  1  0.56492698  0.34851447  0.72602338  1
  C  C437  1  0.61033531  0.49154709  0.65092783  1
  C  C438  1  0.62939451  0.45015174  0.62693537  1
  C  C439  1  0.50272975  0.31426493  0.58586566  1
  C  C440  1  0.67185622  0.43938029  0.62995897  1
  C  C441  1  0.60022735  0.40829847  0.61638423  1
  H  H442  1  0.56177005  0.45930884  0.91454012  1
  H  H443  1  0.70865259  0.30220674  0.96516376  1
  O  O444  1  0.69536859  0.35574293  0.78593381  1
  C  C445  1  0.72976219  0.28623370  0.74824363  1
  C  C446  1  0.74464321  0.47246888  0.65507111  1
  C  C447  1  0.59578623  0.37957397  0.74160957  1
  H  H448  1  0.53504325  0.44284563  0.58695486  1
  C  C449  1  0.54181150  0.34731515  0.59323525  1
  C  C450  1  0.72475373  0.27648125  0.90795979  1
  H  H451  1  0.53224180  0.62042108  0.27090831  1
  C  C452  1  0.71801923  0.65016478  0.34889572  1
  O  O453  1  0.70914952  0.56047317  0.40365086  1
  C  C454  1  0.69024613  0.57517225  0.28759749  1
  C  C455  1  0.69597854  0.62184882  0.24454638  1
  C  C456  1  0.55491083  0.53721374  0.27420489  1
  H  H457  1  0.55564534  0.55949626  0.37203264  1
  C  C458  1  0.71186587  0.71011263  0.16784318  1
  C  C459  1  0.72720383  0.69341405  0.30459152  1
  H  H460  1  0.54398603  0.67613255  0.37167828  1
  C  C461  1  0.51981027  0.70268676  0.36441807  1
  C  C462  1  0.52199769  0.53877265  0.16631409  1
  H  H463  1  0.74702303  0.71663959  0.37255214  1
  H  H464  1  0.72786655  0.63467547  0.45825858  1
  O  O465  1  0.67376242  0.54764561  0.19434545  1
  C  C466  1  0.67845467  0.63954848  0.10607484  1
  Cu  Cu467  1  0.74510303  0.51661862  0.36295996  1
  H  H468  1  0.61431264  0.51884279  0.32548957  1
  C  C469  1  0.58796265  0.51069141  0.25237669  1
  C  C470  1  0.50068817  0.61376602  0.24519667  1
  O  O471  1  0.54657315  0.67570856  0.05014567  1
  H  H472  1  0.59267116  0.72794710  0.24829847  1
  H  H473  1  0.57074598  0.60325914  0.05692206  1
  C  C474  1  0.68822015  0.68331367  0.06869614  1
  H  H475  1  0.65990479  0.61750303  0.03005280  1
  C  C476  1  0.60171816  0.73965268  0.36209676  1
  C  C477  1  0.52752492  0.74555561  0.42356198  1
  H  H478  1  0.66607229  0.74431123  0.31416752  1
  C  C479  1  0.64195583  0.74751420  0.39804550  1
  C  C480  1  0.57187053  0.74743935  0.47215951  1
  C  C481  1  0.52533373  0.50786297  0.04289164  1
  C  C482  1  0.50195588  0.77152581  0.03081134  1
  C  C483  1  0.71349349  0.75930252  0.11096755  1
  C  C484  1  0.71855782  0.99179852  0.15376610  1
  O  O485  1  0.71692364  0.78098714  0.46977303  1
  O  O486  1  0.66360342  0.93645492  0.35200079  1
  C  C487  1  0.68161053  0.96757718  0.39745707  1
  H  H488  1  0.57659068  0.82022854  0.38833105  1
  H  H489  1  0.70134691  0.96743948  0.09174286  1
  H  H490  1  0.60983733  0.98040653  0.08037997  1
  C  C491  1  0.55638154  0.83820494  0.47600494  1
  O  O492  1  0.51352416  0.82754127  0.44431880  1
  C  C493  1  0.50363045  0.78565097  0.41944709  1
  C  C494  1  0.72005968  0.85243161  0.03538400  1
  H  H495  1  0.54065407  0.81236868  0.17977108  1
  C  C496  1  0.67839006  0.78286669  0.06720246  1
  H  H497  1  0.55668657  0.87409946  0.43481750  1
  H  H498  1  0.60454532  0.80188055  0.02482410  1
  C  C499  1  0.52995041  0.80577007  0.05855029  1
  C  C500  1  0.68237849  0.82943518  0.04638487  1
  H  H501  1  0.64843895  0.76818346  0.04928766  1
  H  H502  1  0.72411015  0.88652959  0.01943191  1
  C  C503  1  0.71040369  0.99626701  0.31759334  1
  H  H504  1  0.62735795  0.68284160  0.69768166  1
  C  C505  1  0.63841197  0.61155575  0.68699560  1
  C  C506  1  0.62340593  0.65109211  0.75325707  1
  C  C507  1  0.62865055  0.57114074  0.76444913  1
  C  C508  1  0.60653847  0.56490681  0.89955729  1
  C  C509  1  0.59912874  0.64583257  0.88209264  1
  H  H510  1  0.69901302  0.54700477  0.73520834  1
  C  C511  1  0.63919215  0.52433660  0.69609161  1
  C  C512  1  0.55082810  0.55203232  0.68246139  1
  C  C513  1  0.68162624  0.51680696  0.70988276  1
  O  O514  1  0.58508364  0.72411025  0.92820861  1
  H  H515  1  0.67671226  0.69865861  0.95730328  1
  H  H516  1  0.60422172  0.53073067  0.95057589  1
  H  H517  1  0.65306809  0.61004253  0.57446155  1
  H  H518  1  0.54209686  0.55425827  0.80097630  1
  H  H519  1  0.57141973  0.58179467  0.66218230  1
  C  C520  1  0.57695542  0.68641537  0.95790567  1
  C  C521  1  0.59177256  0.60511461  0.95819438  1
  O  O522  1  0.56320487  0.50496700  0.65642924  1
  H  H523  1  0.52399687  0.55944551  0.60978353  1
  H  H524  1  0.50302966  0.50642825  0.94921944  1
  C  C525  1  0.64632725  0.85757606  0.99554714  1
  H  H526  1  0.52632316  0.98971290  0.71316365  1
  Cu  Cu527  1  0.73908844  0.84639309  0.70903560  1
  C  C528  1  0.62002720  0.77670842  0.64940826  1
  O  O529  1  0.69320585  0.81304821  0.68273146  1
  H  H530  1  0.55838237  0.76976287  0.71145369  1
  H  H531  1  0.68247632  0.91618714  0.95223342  1
  O  O532  1  0.67480624  0.98729958  0.57176065  1
  C  C533  1  0.58142158  0.76217413  0.62791838  1
  C  C534  1  0.55514214  0.97495024  0.76914440  1
  H  H535  1  0.62742408  0.79442435  0.75426462  1
  C  C536  1  0.65111263  0.76758695  0.53984168  1
  C  C537  1  0.53935748  0.83874725  0.93969875  1
  C  C538  1  0.68999201  0.78629816  0.56931380  1
  C  C539  1  0.63991635  0.96779452  0.81477204  1
  C  C540  1  0.57774305  0.86409564  0.94014939  1
  H  H541  1  0.65410170  0.92959511  0.60003387  1
  O  O542  1  0.54958891  0.92939215  0.83232814  1
  C  C543  1  0.65541749  0.96336326  0.66213075  1
  H  H544  1  0.57818796  0.97626579  0.67321964  1
  C  C545  1  0.65271234  0.90113321  0.94319806  1
  C  C546  1  0.60898136  0.83639428  0.99582437  1
  H  H547  1  0.52888621  0.86511098  0.70646704  1
  C  C548  1  0.62071836  0.92629131  0.88951628  1
  C  C549  1  0.58017784  0.90893974  0.89440766  1
  C  C550  1  0.51828633  0.84182231  0.79530538  1
  H  H551  1  0.57272750  0.83399053  0.57961622  1
  H  H552  1  0.56866136  0.99678852  0.86884564  1
  C  C553  1  0.91470896  0.14681600  0.24021799  1
  H  H554  1  0.92276265  0.11807423  0.15799577  1
  H  H555  1  0.91327484  0.18035329  0.17532648  1
  O  O556  1  0.95140278  0.15656579  0.35501551  1
  C  C557  1  0.80750450  0.21314557  0.36538764  1
  H  H558  1  0.88242973  0.13965864  0.27373893  1
  C  C559  1  0.84711031  0.22849511  0.38800135  1
  H  H560  1  0.78589269  0.23404596  0.29943769  1
  C  C561  1  0.95110530  0.20199522  0.43960902  1
  H  H562  1  0.97207423  0.08510045  0.34273264  1
  C  C563  1  0.78113707  0.09668611  0.06247731  1
  H  H564  1  0.77825945  0.08316944  0.39129538  1
  C  C565  1  0.79744828  0.17200438  0.43574678  1
  C  C566  1  0.75972710  0.06065307  0.16390246  1
  C  C567  1  0.97492542  0.11418684  0.42521856  1
  C  C568  1  0.87473721  0.19963244  0.46629282  1
  C  C569  1  0.75416139  0.16241034  0.46124759  1
  C  C570  1  0.75902306  0.05819966  0.32837507  1
  C  C571  1  0.82015117  0.08008699  0.02024415  1
  C  C572  1  0.98564500  0.22663944  0.47643382  1
  C  C573  1  0.91527221  0.22215493  0.48487147  1
  H  H574  1  0.83186792  0.04942543  0.06737064  1
  C  C575  1  0.76050412  0.13701340  0.01981949  1
  C  C576  1  0.80782804  0.42988017  0.09920107  1
  H  H577  1  0.85745503  0.26281431  0.35924536  1
  H  H578  1  0.78004022  0.38411734  0.32203730  1
  C  C579  1  0.89572283  0.30901086  0.20276489  1
  C  C580  1  0.80796593  0.37580096  0.37128407  1
  C  C581  1  0.82905273  0.34930432  0.26787862  1
  C  C582  1  0.86990582  0.33996381  0.30151252  1
  O  O583  1  0.78069570  0.47126272  0.29806584  1
  H  H584  1  0.81678026  0.34089566  0.15591036  1
  C  C585  1  0.77360867  0.44956915  0.17583819  1
  H  H586  1  0.91901923  0.33888264  0.45722470  1
  C  C587  1  0.84627155  0.43651064  0.16601059  1
  C  C588  1  0.88730462  0.35256054  0.44100499  1
  H  H589  1  0.90834823  0.42887383  0.16032362  1
  Cu  Cu590  1  0.97671283  0.33443665  0.28120652  1
  O  O591  1  0.88178592  0.29548018  0.08464321  1
  O  O592  1  0.93246505  0.29868791  0.23832918  1
  C  C593  1  0.88090562  0.41878221  0.09980416  1
  H  H594  1  0.84881102  0.45323375  0.27612954  1
  C  C595  1  0.99071062  0.48317416  0.00301131  1
  C  C596  1  0.93925186  0.05821359  0.75251972  1
  C  C597  1  0.96266613  0.09581744  0.78083995  1
  C  C598  1  0.89645674  0.05984650  0.77337409  1
  C  C599  1  0.94854275  0.13481126  0.84450569  1
  C  C600  1  0.90633636  0.13730474  0.87180801  1
  C  C601  1  0.88274233  0.09935720  0.84486763  1
  H  H602  1  0.87824100  0.03279938  0.73442387  1
  H  H603  1  0.83861803  0.17293504  0.79046008  1
  C  C604  1  0.96826711  0.17855863  0.89411009  1
  H  H605  1  0.79589333  0.20254045  0.64802419  1
  C  C606  1  0.76579085  0.21032758  0.87280115  1
  C  C607  1  0.82083643  0.15068449  0.86104760  1
  H  H608  1  0.88820642  0.13295843  0.58500603  1
  H  H609  1  0.81091566  0.11310634  0.57114406  1
  C  C610  1  0.86530498  0.15553502  0.52103877  1
  C  C611  1  0.77366454  0.22175627  0.71416095  1
  C  C612  1  0.83901578  0.10937588  0.91230180  1
  C  C613  1  0.94625917  0.21864818  0.89755450  1
  H  H614  1  0.91694163  0.21975566  0.85178568  1
  C  C615  1  0.97057353  0.02355622  0.69213238  1
  C  C616  1  0.78338531  0.16586030  0.92327355  1
  C  C617  1  0.82412776  0.14287179  0.51585808  1
  H  H618  1  0.89170510  0.16695741  0.91672955  1
  H  H619  1  0.96015594  0.10555137  0.53640266  1
  H  H620  1  0.95079232  0.28958926  0.96390491  1
  C  C621  1  0.91776512  0.34572165  0.78379414  1
  C  C622  1  0.95340559  0.32902338  0.70937524  1
  C  C623  1  0.98796889  0.26869326  0.55111884  1
  C  C624  1  0.75442252  0.26051878  0.64979384  1
  O  O625  1  0.95116711  0.45046335  0.98277074  1
  C  C626  1  0.96652412  0.25544818  0.95336463  1
  C  C627  1  0.80938233  0.49956326  0.73376951  1
  H  H628  1  0.99442581  0.49546231  0.88036297  1
  C  C629  1  0.89384066  0.48983256  0.77342209  1
  H  H630  1  0.92578130  0.47926062  0.77316785  1
  C  C631  1  0.98784309  0.39353959  0.83599855  1
  H  H632  1  0.83439169  0.36627662  0.80420507  1
  C  C633  1  0.87922809  0.39584128  0.95838123  1
  C  C634  1  0.83179802  0.46706360  0.65552269  1
  H  H635  1  0.88152957  0.47858972  0.88533604  1
  C  C636  1  0.86700353  0.38277342  0.53933029  1
  O  O637  1  0.87291594  0.46725513  0.65061896  1
  C  C638  1  0.91833179  0.38346445  0.87864088  1
  H  H639  1  0.88506835  0.39801736  0.62597305  1
  C  C640  1  0.91504718  0.26484633  0.56371515  1
  H  H641  1  0.88578500  0.28225816  0.58449160  1
  C  C642  1  0.76340890  0.43584027  0.58281500  1
  C  C643  1  0.98682000  0.35525177  0.74256751  1
  C  C644  1  0.83983235  0.39020757  0.89947725  1
  C  C645  1  0.95379395  0.41208898  0.90781717  1
  C  C646  1  0.95082495  0.28768012  0.59925512  1
  C  C647  1  0.80582687  0.43594996  0.58268630  1
  C  C648  1  0.80399353  0.40525600  0.96051259  1
  H  H649  1  0.77247166  0.39614586  0.91453401  1
  H  H650  1  0.75705076  0.27195141  0.53098253  1
  H  H651  1  0.88916358  0.32639168  0.77221763  1
  C  C652  1  0.82671452  0.39674326  0.50326417  1
  C  C653  1  0.79722968  0.72022391  0.12868619  1
  H  H654  1  0.85357994  0.56390563  0.20464156  1
  O  O655  1  0.88308913  0.63861045  0.26239918  1
  C  C656  1  0.84917462  0.56777801  0.08354050  1
  O  O657  1  0.88952999  0.67771738  0.05718734  1
  C  C658  1  0.87786168  0.64422704  0.12511086  1
  C  C659  1  0.85902893  0.60789989  0.00768063  1
  H  H660  1  0.98491821  0.51055299  0.08304028  1
  H  H661  1  0.82339154  0.70441099  0.18798091  1
  H  H662  1  0.78362205  0.70479545  0.02517317  1
  H  H663  1  0.81927571  0.50151213  0.03465240  1
  O  O664  1  0.78561672  0.75484638  0.18383844  1
  C  C665  1  0.75061826  0.78132458  0.12036953  1
  C  C666  1  0.83610372  0.91392581  0.15155556  1
  C  C667  1  0.86852343  0.84050306  0.10497740  1
  C  C668  1  0.75455713  0.82607974  0.07283992  1
  H  H669  1  0.77148172  0.91919253  0.14727573  1
  C  C670  1  0.86976613  0.88531696  0.14813592  1
  O  O671  1  0.91578713  0.94898633  0.19227051  1
  C  C672  1  0.79457598  0.85120524  0.07240515  1
  C  C673  1  0.83106597  0.82551542  0.05840904  1
  H  H674  1  0.82810426  0.79190666  0.00294483  1
  C  C675  1  0.91049455  0.90679950  0.18103182  1
  H  H676  1  0.83886956  0.95007429  0.18222713  1
  H  H677  1  0.89522010  0.81986335  0.09932187  1
  O  O678  1  0.93862486  0.88092989  0.18048829  1
  C  C679  1  0.79828907  0.89755943  0.12205288  1
  H  H680  1  0.86160261  0.85183971  0.36209291  1
  Cu  Cu681  1  0.75482067  0.82809203  0.44321533  1
  H  H682  1  0.93214037  0.83373320  0.41845283  1
  O  O683  1  0.99785945  0.86533057  0.49005290  1
  O  O684  1  0.79354902  0.87273169  0.45028872  1
  C  C685  1  0.87290773  0.85231188  0.48173239  1
  Cu  Cu686  1  0.92083129  0.98206752  0.00288819  1
  C  C687  1  0.82596822  0.54020737  0.82761806  1
  C  C688  1  0.85511522  0.61376180  0.84808945  1
  H  H689  1  0.86365280  0.64653287  0.79754706  1
  C  C690  1  0.83859516  0.57970038  0.75387408  1
  H  H691  1  0.89130591  0.52553601  0.77892387  1
  H  H692  1  0.83883222  0.58184185  0.63004864  1
  H  H693  1  0.75574638  0.52806906  0.82721162  1
  C  C694  1  0.83035744  0.53584767  0.98852482  1
  C  C695  1  0.76828033  0.50373374  0.74594624  1
  H  H696  1  0.94618637  0.91534463  0.61380009  1
  H  H697  1  0.99290245  0.90200211  0.95017188  1
  O  O698  1  0.78237644  0.88259615  0.69638684  1
  H  H699  1  0.84817807  0.88908543  0.85132735  1
  C  C700  1  0.92709007  0.83952346  0.66718226  1
  H  H701  1  0.93876753  0.78039772  0.87633217  1
  O  O702  1  0.86538341  0.99420671  0.99757885  1
  C  C703  1  0.86153787  0.96543530  0.72552520  1
  C  C704  1  0.96674882  0.78652757  0.81395507  1
  C  C705  1  0.84305650  0.98658816  0.87586679  1
  O  O706  1  0.80819545  0.99178123  0.87271411  1
  C  C707  1  0.96824593  0.81884213  0.69473122  1
  C  C708  1  0.80740357  0.87592219  0.58803818  1
  H  H709  1  0.91942955  0.86569302  0.89884647  1
  C  C710  1  0.86670927  0.87520343  0.75757987  1
  C  C711  1  0.93649056  0.94933312  0.64830257  1
  O  O712  1  0.97508673  0.97917765  0.99277588  1
  H  H713  1  0.99955493  0.96917880  0.60378467  1
  C  C714  1  0.84995648  0.86846889  0.61002842  1
  C  C715  1  0.96958272  0.97838348  0.65087637  1
  H  H716  1  0.84059699  0.94732300  0.63930715  1
  C  C717  1  0.89822466  0.95965907  0.69828521  1
  C  C718  1  0.90523285  0.86022597  0.78770938  1
  C  C719  1  0.91239750  0.84228127  0.51416109  1
