# generated using pymatgen
data_CuH13C21O5
_symmetry_space_group_name_H-M   'P 1'
_cell_length_a   36.72980063
_cell_length_b   31.31821495
_cell_length_c   8.43987228
_cell_angle_alpha   90.00000000
_cell_angle_beta   90.00000000
_cell_angle_gamma   90.00000000
_symmetry_Int_Tables_number   1
_chemical_formula_structural   CuH13C21O5
_chemical_formula_sum   'Cu18 H234 C378 O90'
_cell_volume   9708.48459495
_cell_formula_units_Z   18
loop_
 _symmetry_equiv_pos_site_id
 _symmetry_equiv_pos_as_xyz
  1  'x, y, z'
loop_
 _atom_site_type_symbol
 _atom_site_label
 _atom_site_symmetry_multiplicity
 _atom_site_fract_x
 _atom_site_fract_y
 _atom_site_fract_z
 _atom_site_occupancy
  C  C0  1  0.14911588  0.18123434  0.29146052  1
  C  C1  1  0.11465997  0.19674118  0.31010276  1
  C  C2  1  0.08503900  0.13529035  0.87222571  1
  H  H3  1  0.08762147  0.10914693  0.95679380  1
  H  H4  1  0.13135856  0.04528763  0.07511280  1
  H  H5  1  0.05492690  0.13501004  0.85182744  1
  H  H6  1  0.10214924  0.12512204  0.76370762  1
  C  C7  1  0.15124989  0.21940126  0.95732749  1
  C  C8  1  0.16980807  0.18019722  0.43214724  1
  O  O9  1  0.12128636  0.10029408  0.19334257  1
  O  O10  1  0.02330038  0.15885059  0.42031323  1
  C  C11  1  0.15254445  0.09784968  0.93260093  1
  H  H12  1  0.09555650  0.19861811  0.20447280  1
  C  C13  1  0.13150455  0.18144999  0.93116118  1
  O  O14  1  0.09566106  0.17811000  0.91677044  1
  H  H15  1  0.17078116  0.18198623  0.68696557  1
  H  H16  1  0.08081629  0.13811535  0.34397378  1
  H  H17  1  0.10069349  0.03856950  0.53125235  1
  C  C18  1  0.09970433  0.06604017  0.29372542  1
  C  C19  1  0.14160987  0.08945334  0.51174762  1
  H  H20  1  0.16910589  0.03120411  0.83992845  1
  C  C21  1  0.20786848  0.16586950  0.43065202  1
  H  H22  1  0.10916867  0.21264021  0.72157849  1
  O  O23  1  0.22595335  0.16656660  0.55789434  1
  O  O24  1  0.03717046  0.04335176  0.64329159  1
  H  H25  1  0.15939792  0.17089221  0.16978124  1
  C  C26  1  0.19527714  0.14879747  0.92092200  1
  C  C27  1  0.15694140  0.14692548  0.93210554  1
  C  C28  1  0.16340597  0.06619661  0.80803516  1
  C  C29  1  0.15280998  0.07837352  0.66171746  1
  H  H30  1  0.15500536  0.11488704  0.44320888  1
  C  C31  1  0.21278346  0.18923786  0.92686891  1
  C  C32  1  0.11296844  0.06253576  0.45345571  1
  O  O33  1  0.22141180  0.16331019  0.29325859  1
  C  C34  1  0.13680418  0.08203930  0.06536194  1
  C  C35  1  0.20229169  0.00199100  0.48142339  1
  H  H36  1  0.04324583  0.10011169  0.40846073  1
  O  O37  1  0.07431040  0.04728469  0.24273341  1
  C  C38  1  0.02761215  0.20085551  0.44360077  1
  C  C39  1  0.15461278  0.18940021  0.58146484  1
  C  C40  1  0.05638041  0.13296628  0.42609435  1
  C  C41  1  0.09781009  0.20570012  0.45928623  1
  H  H42  1  0.06984836  0.13474913  0.53992635  1
  C  C43  1  0.11788606  0.20214855  0.60268478  1
  H  H44  1  0.21239947  0.11915108  0.91361364  1
  C  C45  1  0.18895605  0.22443036  0.95093458  1
  C  C46  1  0.05983072  0.22545081  0.45868165  1
  H  H47  1  0.22292988  0.02298828  0.43307427  1
  C  C48  1  0.05951031  0.02430252  0.71251057  1
  H  H49  1  0.23481730  0.01463278  0.21567490  1
  H  H50  1  0.01615071  0.18330762  0.99663775  1
  H  H51  1  0.06870112  0.00412792  0.03159625  1
  H  H52  1  0.17632953  0.02022921  0.48336002  1
  H  H53  1  0.15961961  0.26492473  0.22719506  1
  H  H54  1  0.17421660  0.49337792  0.97140743  1
  H  H55  1  0.11370274  0.27459924  0.74171012  1
  H  H56  1  0.17757838  0.44165863  0.83653774  1
  H  H57  1  0.09188867  0.34721947  0.53549553  1
  C  C58  1  0.06599444  0.36480584  0.55032780  1
  C  C59  1  0.06266357  0.49966500  0.68169969  1
  C  C60  1  0.16128219  0.44517448  0.73245182  1
  C  C61  1  0.10978685  0.34442394  0.05014424  1
  C  C62  1  0.09163407  0.38654495  0.08628287  1
  C  C63  1  0.03340739  0.43465421  0.59802468  1
  C  C64  1  0.11653662  0.28844079  0.86353909  1
  C  C65  1  0.10408687  0.42580792  0.59388655  1
  H  H66  1  0.07782943  0.48300215  0.77152003  1
  C  C67  1  0.03280978  0.34198782  0.52204805  1
  H  H68  1  0.08931247  0.34744486  0.80163566  1
  O  O69  1  0.06447819  0.39859717  0.98574159  1
  C  C70  1  0.11540163  0.45106216  0.45679826  1
  H  H71  1  0.23373321  0.46761074  0.19249615  1
  C  C72  1  0.24314265  0.31752956  0.35392641  1
  H  H73  1  0.11946225  0.40579336  0.83185050  1
  Cu  Cu74  1  0.03260645  0.35575005  0.93660879  1
  Cu  Cu75  1  0.02427158  0.43577528  0.04114783  1
  O  O76  1  0.10073390  0.40521044  0.20070130  1
  C  C77  1  0.12785151  0.42322155  0.72799943  1
  C  C78  1  0.03210938  0.29392265  0.49412605  1
  C  C79  1  0.10377990  0.32952709  0.89271531  1
  O  O80  1  0.03035124  0.47526692  0.63894837  1
  H  H81  1  0.23560388  0.32993220  0.59971397  1
  C  C82  1  0.06402812  0.26891543  0.47711975  1
  O  O83  1  0.05595716  0.47825711  0.09537267  1
  C  C84  1  0.06554925  0.40801898  0.58356807  1
  C  C85  1  0.13117451  0.32394125  0.16558292  1
  H  H86  1  0.13276831  0.33978405  0.27850990  1
  C  C87  1  0.24428850  0.34442503  0.48774691  1
  C  C88  1  0.00137237  0.41197487  0.55093301  1
  C  C89  1  0.14470630  0.28338805  0.13424648  1
  H  H90  1  0.20151802  0.25497431  0.97206133  1
  H  H91  1  0.09792592  0.45569488  0.35379913  1
  H  H92  1  0.08990538  0.28543113  0.48456879  1
  H  H93  1  0.10913969  0.47014963  0.99228993  1
  C  C94  1  0.17234159  0.46774036  0.59308998  1
  C  C95  1  0.13758434  0.26499337  0.97871790  1
  C  C96  1  0.14822980  0.47053426  0.45631267  1
  C  C97  1  0.00174260  0.36721267  0.52606759  1
  O  O98  1  0.04104506  0.26226529  0.98528311  1
  C  C99  1  0.23287957  0.27398257  0.37572075  1
  H  H100  1  0.15490588  0.49100589  0.35506576  1
  C  C101  1  0.01453522  0.27179860  0.91248380  1
  O  O102  1  0.22896659  0.25615280  0.51242521  1
  H  H103  1  0.24618703  0.31503788  0.09239936  1
  O  O104  1  0.00667568  0.31163722  0.88069804  1
  C  C105  1  0.20766866  0.48775168  0.59319197  1
  O  O106  1  0.22898179  0.48111130  0.71443235  1
  H  H107  1  0.24971635  0.26432377  0.88364947  1
  O  O108  1  0.22806242  0.25065784  0.25473447  1
  C  C109  1  0.21973856  0.66774857  0.31336515  1
  H  H110  1  0.20596750  0.51375551  0.06705420  1
  C  C111  1  0.00666795  0.73817405  0.63391600  1
  H  H112  1  0.07291712  0.60339831  0.97516356  1
  C  C113  1  0.20004534  0.57256165  0.94469087  1
  O  O114  1  0.21679786  0.51243980  0.48326156  1
  H  H115  1  0.19826159  0.70540673  0.71515174  1
  C  C116  1  0.07121212  0.72823646  0.64808704  1
  C  C117  1  0.13120236  0.59178087  0.92957341  1
  O  O118  1  0.23170506  0.59242226  0.39620426  1
  C  C119  1  0.21414040  0.61300695  0.89662864  1
  H  H120  1  0.13787432  0.62591484  0.91035716  1
  O  O121  1  0.19562050  0.64521376  0.82981316  1
  H  H122  1  0.05946167  0.53364847  0.72080561  1
  H  H123  1  0.06638239  0.65880862  0.04700892  1
  H  H124  1  0.05082603  0.71042555  0.99391592  1
  C  C125  1  0.17538159  0.68067352  0.12209433  1
  C  C126  1  0.22816652  0.71160213  0.32807957  1
  C  C127  1  0.18048308  0.72605780  0.13583323  1
  H  H128  1  0.15592080  0.66846273  0.03359767  1
  O  O129  1  0.10707439  0.70834441  0.06446418  1
  H  H130  1  0.19324096  0.61509035  0.18884555  1
  H  H131  1  0.03850940  0.70220561  0.46194374  1
  C  C132  1  0.21359305  0.68587515  0.80890514  1
  H  H133  1  0.09773989  0.71425783  0.61026236  1
  C  C134  1  0.19406062  0.65004450  0.20956759  1
  C  C135  1  0.09581760  0.57958305  0.96675190  1
  C  C136  1  0.15323798  0.51714886  0.96469707  1
  C  C137  1  0.03892835  0.72151696  0.56601903  1
  C  C138  1  0.11741000  0.50359440  0.97546074  1
  C  C139  1  0.16021163  0.56150483  0.93876482  1
  C  C140  1  0.09064923  0.53531736  0.99056267  1
  C  C141  1  0.05583781  0.51864364  0.04707877  1
  C  C142  1  0.22012579  0.54094527  0.02090837  1
  H  H143  1  0.08178787  0.68459334  0.85587652  1
  C  C144  1  0.12232496  0.74201070  0.99115681  1
  C  C145  1  0.07548673  0.68969422  0.98389678  1
  O  O146  1  0.02960274  0.54153172  0.05554691  1
  H  H147  1  0.24116613  0.68309857  0.75294809  1
  H  H148  1  0.21664123  0.70504159  0.92375483  1
  H  H149  1  0.24798596  0.72176970  0.41496975  1
  C  C150  1  0.23873710  0.63385792  0.41502275  1
  C  C151  1  0.20858361  0.74077959  0.24450046  1
  H  H152  1  0.08492111  0.50040101  0.58931633  1
  C  C153  1  0.04720126  0.81443396  0.46619440  1
  C  C154  1  0.11057997  0.86459436  0.16578860  1
  C  C155  1  0.11717462  0.97501483  0.69449006  1
  C  C156  1  0.14679400  0.93373989  0.31000979  1
  C  C157  1  0.20735216  0.89823816  0.28862212  1
  C  C158  1  0.17696509  0.79058463  0.97263685  1
  C  C159  1  0.21759535  0.86287047  0.37421276  1
  H  H160  1  0.05095183  0.80865362  0.59489219  1
  H  H161  1  0.09641395  0.98054488  0.45984552  1
  C  C162  1  0.19605211  0.94756013  0.67538460  1
  C  C163  1  0.15974603  0.81557856  0.85135840  1
  C  C164  1  0.00829368  0.83780712  0.19352769  1
  C  C165  1  0.11788339  0.96872787  0.53241079  1
  H  H166  1  0.13688278  0.80228973  0.38635632  1
  H  H167  1  0.13994115  0.86551291  0.57653502  1
  H  H168  1  0.22743192  0.92348892  0.25893231  1
  H  H169  1  0.13854879  0.95976767  0.76623548  1
  C  C170  1  0.10916130  0.88957641  0.02234403  1
  C  C171  1  0.16103220  0.87986209  0.65471038  1
  H  H172  1  0.20990416  0.87352390  0.99518034  1
  H  H173  1  0.03428018  0.78402409  0.41763578  1
  C  C174  1  0.09270468  0.99322336  0.95165380  1
  H  H175  1  0.19946019  0.80607453  0.49319122  1
  H  H176  1  0.01357151  0.87542715  0.92769553  1
  H  H177  1  0.21097752  0.77683368  0.26662571  1
  H  H178  1  0.12571535  0.94990559  0.24422490  1
  O  O179  1  0.07996011  0.82396589  0.37784127  1
  C  C180  1  0.17415424  0.85792071  0.79000328  1
  H  H181  1  0.01773310  0.76594898  0.20013371  1
  C  C182  1  0.14503733  0.85990277  0.24629745  1
  C  C183  1  0.17018256  0.92120962  0.60032262  1
  C  C184  1  0.24623055  0.99557340  0.12115682  1
  H  H185  1  0.11220382  0.82157988  0.70732929  1
  C  C186  1  0.22174025  0.97310152  0.02428398  1
  C  C187  1  0.00667655  0.76627478  0.76488584  1
  C  C188  1  0.20976361  0.92249069  0.80475142  1
  H  H189  1  0.20465379  0.79851134  0.00678162  1
  C  C190  1  0.15568459  0.82895048  0.35392366  1
  C  C191  1  0.20063535  0.88318124  0.87402634  1
  H  H192  1  0.03825689  0.79339925  0.94969537  1
  C  C193  1  0.23798946  0.94718138  0.90280107  1
  C  C194  1  0.16910856  0.90019495  0.24102305  1
  C  C195  1  0.14714297  0.94244904  0.46878602  1
  H  H196  1  0.02544151  0.83940155  0.45865460  1
  C  C197  1  0.07877717  0.84494738  0.23527312  1
  C  C198  1  0.04667785  0.85029608  0.15193091  1
  C  C199  1  0.07414764  0.88641038  0.97095412  1
  H  H200  1  0.13314998  0.90300441  0.95375520  1
  H  H201  1  0.16860395  0.91180526  0.11806142  1
  C  C202  1  0.19092508  0.83221890  0.41785988  1
  C  C203  1  0.12512157  0.80204215  0.80348681  1
  O  O204  1  0.11693951  0.98070780  0.03226329  1
  C  C205  1  0.04014690  0.87368251  0.00483707  1
  C  C206  1  0.03923844  0.77139408  0.85143116  1
  O  O207  1  0.20956348  0.98616569  0.64198068  1
  H  H208  1  0.19187813  0.97349244  0.04390732  1
  C  C209  1  0.07085432  0.75242826  0.78899906  1
  C  C210  1  0.08861276  0.99918646  0.77407071  1
  C  C211  1  0.10671218  0.76603186  0.86671887  1
  H  H212  1  0.19760306  0.97683036  0.39628973  1
  C  C213  1  0.15780595  0.75549461  0.03214423  1
  H  H214  1  0.33884167  0.12453485  0.21483908  1
  C  C215  1  0.37187861  0.08992606  0.37476442  1
  C  C216  1  0.31398918  0.18886209  0.40441048  1
  C  C217  1  0.33649381  0.15176498  0.45049799  1
  C  C218  1  0.34806101  0.12244496  0.33613273  1
  C  C219  1  0.40460157  0.08865711  0.00473853  1
  C  C220  1  0.40318257  0.04105703  0.55984245  1
  C  C221  1  0.44089295  0.04024415  0.54612295  1
  C  C222  1  0.35052061  0.14743417  0.60432014  1
  H  H223  1  0.46339433  0.14157452  0.44985069  1
  H  H224  1  0.34166899  0.17107323  0.68912552  1
  O  O225  1  0.30007879  0.18558497  0.27094227  1
  O  O226  1  0.30498585  0.21313274  0.51751971  1
  O  O227  1  0.46882133  0.08347404  0.99732230  1
  C  C228  1  0.34504429  0.14310063  0.97226198  1
  O  O229  1  0.43357283  0.02216892  0.97139709  1
  C  C230  1  0.28299372  0.16516237  0.92055065  1
  H  H231  1  0.31252509  0.08198013  0.92968062  1
  C  C232  1  0.25344637  0.19390140  0.91205947  1
  H  H233  1  0.42536455  0.12489547  0.57478987  1
  C  C234  1  0.33840695  0.09773099  0.96569110  1
  H  H235  1  0.27763182  0.12991630  0.94293776  1
  C  C236  1  0.31927724  0.17639150  0.91652105  1
  H  H237  1  0.37948126  0.19525038  0.03864183  1
  C  C238  1  0.37045797  0.11159546  0.65366846  1
  O  O239  1  0.29851456  0.03584555  0.31083062  1
  H  H240  1  0.36316324  0.03695651  0.98449685  1
  H  H241  1  0.43740321  0.14589645  0.05002197  1
  C  C242  1  0.37923834  0.16016582  0.02229056  1
  Cu  Cu243  1  0.25868183  0.21283436  0.61143114  1
  C  C244  1  0.36782518  0.07228831  0.99574252  1
  C  C245  1  0.40928921  0.13311655  0.02971556  1
  H  H246  1  0.42558613  0.11228365  0.36539440  1
  C  C247  1  0.33318171  0.21886974  0.86898537  1
  C  C248  1  0.43604200  0.06312801  0.99216823  1
  O  O249  1  0.36630262  0.22930502  0.83555554  1
  C  C250  1  0.38212141  0.08256485  0.53439734  1
  O  O251  1  0.46172708  0.07478079  0.50951104  1
  C  C252  1  0.44270398  0.11460825  0.47539039  1
  H  H253  1  0.38149994  0.06843626  0.27919993  1
  H  H254  1  0.37737298  0.10897473  0.77986522  1
  C  C255  1  0.49708865  0.01919444  0.98790394  1
  Cu  Cu256  1  0.25616853  0.20375176  0.19959575  1
  C  C257  1  0.38096759  0.00408531  0.60767876  1
  C  C258  1  0.26688623  0.23539879  0.89303168  1
  C  C259  1  0.49876914  0.06409381  0.99561913  1
  C  C260  1  0.30844713  0.00985661  0.21525597  1
  H  H261  1  0.35144753  0.00452584  0.62774014  1
  C  C262  1  0.30324750  0.24645437  0.86504191  1
  C  C263  1  0.46386662  0.00039691  0.97502209  1
  C  C264  1  0.45047204  0.49709695  0.21464111  1
  O  O265  1  0.34176267  0.41951572  0.41332814  1
  H  H266  1  0.44183505  0.45716620  0.98983148  1
  H  H267  1  0.40332369  0.27537519  0.71974324  1
  C  C268  1  0.30873042  0.36011237  0.69765304  1
  C  C269  1  0.32176269  0.45016439  0.33560109  1
  C  C270  1  0.33669345  0.48715062  0.26822993  1
  H  H271  1  0.37306861  0.45472454  0.04758402  1
  H  H272  1  0.39582529  0.43768335  0.36062627  1
  H  H273  1  0.30208307  0.29635841  0.59111176  1
  O  O274  1  0.29978920  0.45218833  0.73366982  1
  H  H275  1  0.39057212  0.40220292  0.53331172  1
  H  H276  1  0.31831910  0.29749040  0.10709276  1
  O  O277  1  0.31155212  0.44127305  0.98268532  1
  C  C278  1  0.31812081  0.35921951  0.99273743  1
  C  C279  1  0.31608204  0.31521720  0.99464429  1
  C  C280  1  0.30666733  0.42790461  0.85095816  1
  H  H281  1  0.37536450  0.45736952  0.54197150  1
  H  H282  1  0.31924113  0.37651454  0.10343316  1
  C  C283  1  0.30861359  0.29476536  0.84934115  1
  C  C284  1  0.37576851  0.27323225  0.77591088  1
  C  C285  1  0.28444232  0.44618068  0.29276057  1
  H  H286  1  0.30576971  0.37583137  0.58522643  1
  H  H287  1  0.37267617  0.29929551  0.87058323  1
  C  C288  1  0.30667471  0.31615053  0.69767178  1
  C  C289  1  0.25531067  0.38673504  0.46844128  1
  H  H290  1  0.35755733  0.28067600  0.67858396  1
  C  C291  1  0.37767454  0.49574042  0.25709531  1
  C  C292  1  0.37881820  0.42846929  0.46502833  1
  C  C293  1  0.31137592  0.38033677  0.84621297  1
  C  C294  1  0.39190338  0.47318802  0.12830823  1
  C  C295  1  0.42944229  0.47308569  0.09775914  1
  C  C296  1  0.26632975  0.40410273  0.32129402  1
  C  C297  1  0.25922484  0.37899485  0.17838664  1
  C  C298  1  0.48918066  0.49275515  0.17504768  1
  C  C299  1  0.26265970  0.47573872  0.20980340  1
  H  H300  1  0.25696088  0.40537979  0.58011369  1
  C  C301  1  0.25045277  0.33640099  0.20342778  1
  H  H302  1  0.26061575  0.39227572  0.05568467  1
  O  O303  1  0.31702232  0.53811552  0.71110357  1
  C  C304  1  0.46825445  0.63340081  0.63115337  1
  C  C305  1  0.27956710  0.51266531  0.15499013  1
  Cu  Cu306  1  0.49664977  0.57369350  0.27731667  1
  C  C307  1  0.27876676  0.64947902  0.90667573  1
  C  C308  1  0.40014190  0.51628592  0.37298904  1
  H  H309  1  0.35431553  0.61536653  0.38558066  1
  Cu  Cu310  1  0.43311938  0.68165866  0.91267147  1
  O  O311  1  0.46058639  0.64260082  0.01952925  1
  H  H312  1  0.41927043  0.64725954  0.40407785  1
  H  H313  1  0.38781999  0.53379998  0.47852899  1
  C  C314  1  0.49648906  0.60541626  0.68160275  1
  C  C315  1  0.33551469  0.67057591  0.76955708  1
  H  H316  1  0.30477766  0.59015628  0.02877935  1
  C  C317  1  0.36353262  0.57987959  0.60508786  1
  H  H318  1  0.43921322  0.57485412  0.83203328  1
  H  H319  1  0.30272025  0.61800557  0.69623451  1
  C  C320  1  0.47614602  0.64928292  0.15049150  1
  C  C321  1  0.28029880  0.68766820  0.00201077  1
  C  C322  1  0.41906656  0.58483794  0.74174280  1
  C  C323  1  0.37379136  0.60687617  0.48054654  1
  C  C324  1  0.38514240  0.56684360  0.73848911  1
  C  C325  1  0.40803207  0.62588583  0.49250212  1
  C  C326  1  0.32739185  0.56056329  0.59485753  1
  C  C327  1  0.46727218  0.67856959  0.64471178  1
  C  C328  1  0.33861252  0.70294305  0.88441223  1
  C  C329  1  0.42994854  0.61325671  0.61580948  1
  C  C330  1  0.43666057  0.51728838  0.35149089  1
  H  H331  1  0.44330372  0.69756913  0.61267017  1
  H  H332  1  0.35685740  0.66267545  0.68392643  1
  O  O333  1  0.47101539  0.62367819  0.26978681  1
  C  C334  1  0.30477979  0.64404788  0.78055154  1
  C  C335  1  0.31027717  0.71384238  0.98753564  1
  C  C336  1  0.27465433  0.58301054  0.01062984  1
  H  H337  1  0.32958738  0.54838510  0.13836119  1
  O  O338  1  0.30626109  0.56869495  0.47874555  1
  O  O339  1  0.40196869  0.72013384  0.82285204  1
  O  O340  1  0.49199535  0.55625855  0.67882373  1
  H  H341  1  0.45438794  0.53331969  0.44140771  1
  H  H342  1  0.37517353  0.54414440  0.82606259  1
  C  C343  1  0.31700695  0.51858651  0.18422104  1
  H  H344  1  0.49292886  0.71012663  0.94305293  1
  Cu  Cu345  1  0.27393189  0.50518206  0.72570172  1
  O  O346  1  0.26006607  0.64508542  0.51043629  1
  C  C347  1  0.25767192  0.54536739  0.06112814  1
  C  C348  1  0.37270351  0.72775904  0.91042956  1
  C  C349  1  0.25183651  0.61392141  0.94238891  1
  Cu  Cu350  1  0.25965970  0.54179452  0.45776199  1
  C  C351  1  0.49797102  0.68678964  0.18198905  1
  H  H352  1  0.25894575  0.69556423  0.08932339  1
  H  H353  1  0.31432086  0.74251428  0.06592102  1
  C  C354  1  0.45006058  0.89225060  0.09094260  1
  H  H355  1  0.28317106  0.91472335  0.79438145  1
  C  C356  1  0.47970856  0.87198268  0.01940023  1
  Cu  Cu357  1  0.35118744  0.94777746  0.34122467  1
  O  O358  1  0.34245931  0.99475467  0.21786266  1
  O  O359  1  0.37190296  0.75129656  0.02034381  1
  Cu  Cu360  1  0.31027398  0.88893960  0.22483270  1
  O  O361  1  0.26965461  0.83050531  0.50655940  1
  C  C362  1  0.49642884  0.98899104  0.52507275  1
  C  C363  1  0.40608906  0.86212475  0.89501425  1
  H  H364  1  0.45680571  0.77544092  0.76752672  1
  C  C365  1  0.41372393  0.88708784  0.03339894  1
  C  C366  1  0.44030970  0.95928201  0.60186764  1
  O  O367  1  0.38577415  0.91419000  0.26288866  1
  C  C368  1  0.28312567  0.98756218  0.10323070  1
  C  C369  1  0.38213413  0.89709609  0.13041525  1
  O  O370  1  0.34854015  0.88744395  0.08568463  1
  C  C371  1  0.40522829  0.97181139  0.61671580  1
  C  C372  1  0.43397811  0.84274285  0.81967365  1
  H  H373  1  0.45403591  0.91118113  0.19909404  1
  C  C374  1  0.29879937  0.96064451  0.98803378  1
  H  H375  1  0.45332328  0.92773715  0.58781440  1
  H  H376  1  0.42942387  0.82582998  0.70823071  1
  H  H377  1  0.37628820  0.85750531  0.86662976  1
  C  C378  1  0.47129572  0.84630241  0.88435775  1
  H  H379  1  0.46142304  0.96566259  0.96467575  1
  H  H380  1  0.32833945  0.95688629  0.98005825  1
  O  O381  1  0.27822929  0.89028201  0.37387070  1
  H  H382  1  0.47521860  0.84636184  0.32264466  1
  C  C383  1  0.27585365  0.93889230  0.88961586  1
  H  H384  1  0.49539283  0.80599646  0.19705179  1
  C  C385  1  0.48660067  0.78054247  0.74794616  1
  C  C386  1  0.45893009  0.99994348  0.56792311  1
  C  C387  1  0.25706886  0.85860055  0.42448372  1
  C  C388  1  0.49948939  0.82657694  0.30275357  1
  O  O389  1  0.57390523  0.12317236  0.01204587  1
  H  H390  1  0.52552376  0.08312464  0.98832214  1
  C  C391  1  0.64667290  0.12744989  0.72993172  1
  H  H392  1  0.63280170  0.10786901  0.64498018  1
  H  H393  1  0.50108913  0.03739695  0.33311727  1
  Cu  Cu394  1  0.58629863  0.02486905  0.79535129  1
  C  C395  1  0.73174730  0.19636419  0.78261472  1
  H  H396  1  0.69696154  0.14224453  0.59410623  1
  C  C397  1  0.64382691  0.15459299  0.99412655  1
  C  C398  1  0.67756475  0.17445885  0.97490522  1
  O  O399  1  0.57785766  0.08377009  0.79857727  1
  C  C400  1  0.67993851  0.14572368  0.70429190  1
  C  C401  1  0.69587089  0.17309867  0.82622188  1
  C  C402  1  0.62692387  0.13189677  0.87450511  1
  C  C403  1  0.59157057  0.11029278  0.90220483  1
  H  H404  1  0.68875460  0.19340188  0.07988816  1
  C  C405  1  0.73110380  0.23970928  0.75318328  1
  H  H406  1  0.62880277  0.15444153  0.10969994  1
  C  C407  1  0.73272194  0.21782496  0.27588504  1
  H  H408  1  0.56193089  0.02616787  0.28100339  1
  O  O409  1  0.61282985  0.01520016  0.61767948  1
  H  H410  1  0.66374592  0.22143576  0.71778690  1
  O  O411  1  0.56271748  0.01799530  0.98155247  1
  O  O412  1  0.74004226  0.20048527  0.40366224  1
  C  C413  1  0.55059989  0.00710637  0.37834615  1
  C  C414  1  0.51565900  0.01372161  0.40085906  1
  O  O415  1  0.74333726  0.19983948  0.14765073  1
  H  H416  1  0.70963827  0.26869967  0.51558728  1
  C  C417  1  0.67051000  0.45953853  0.20031649  1
  H  H418  1  0.60470359  0.46941061  0.03350994  1
  H  H419  1  0.71108852  0.33762175  0.97104156  1
  C  C420  1  0.70954725  0.32104465  0.08349166  1
  C  C421  1  0.69951288  0.32714676  0.37138515  1
  C  C422  1  0.71722864  0.27772754  0.10158790  1
  C  C423  1  0.60642824  0.42706489  0.35574338  1
  H  H424  1  0.59786201  0.43950115  0.23329706  1
  C  C425  1  0.70272080  0.34705473  0.21827026  1
  C  C426  1  0.71868953  0.26202057  0.25370898  1
  C  C427  1  0.66590358  0.41479711  0.24421357  1
  O  O428  1  0.64027025  0.39697154  0.32096011  1
  C  C429  1  0.69981506  0.47912829  0.13130347  1
  H  H430  1  0.58434370  0.41175082  0.41875899  1
  H  H431  1  0.61454102  0.45444796  0.43109642  1
  H  H432  1  0.69042326  0.34218090  0.47878249  1
  C  C433  1  0.70895782  0.28453166  0.39403491  1
  C  C434  1  0.69803922  0.39368528  0.18473904  1
  C  C435  1  0.72957868  0.41213362  0.12524890  1
  O  O436  1  0.70304658  0.26628605  0.74034674  1
  H  H437  1  0.64081752  0.27321515  0.72563624  1
  O  O438  1  0.50192640  0.47454169  0.06667182  1
  C  C439  1  0.73216358  0.45667219  0.09376473  1
  Cu  Cu440  1  0.72098269  0.49088677  0.68532388  1
  C  C441  1  0.61067420  0.49634155  0.11961346  1
  H  H442  1  0.72786921  0.25803977  0.00185307  1
  C  C443  1  0.64274274  0.49537218  0.21674938  1
  H  H444  1  0.65734575  0.25072799  0.90036929  1
  C  C445  1  0.66477656  0.25429399  0.77165119  1
  C  C446  1  0.56551950  0.60400097  0.75293919  1
  O  O447  1  0.67842125  0.51791049  0.70280946  1
  C  C448  1  0.57968199  0.57316351  0.64762649  1
  O  O449  1  0.57388034  0.62942441  0.31954593  1
  C  C450  1  0.56858880  0.59673124  0.24605075  1
  C  C451  1  0.59610460  0.56348757  0.25353145  1
  C  C452  1  0.58871155  0.53268069  0.13432540  1
  O  O453  1  0.74345831  0.54131575  0.61238661  1
  H  H454  1  0.63454344  0.59471578  0.40141553  1
  H  H455  1  0.51394785  0.67190206  0.42395768  1
  H  H456  1  0.62602644  0.52993463  0.58713193  1
  H  H457  1  0.55763845  0.68584691  0.72437868  1
  C  C458  1  0.52892424  0.62648892  0.71573494  1
  C  C459  1  0.74314415  0.55043637  0.46643247  1
  H  H460  1  0.67884010  0.52705708  0.38652495  1
  C  C461  1  0.63483183  0.57029134  0.78924735  1
  C  C462  1  0.62947198  0.56545924  0.33906541  1
  H  H463  1  0.66015448  0.71802607  0.33321354  1
  H  H464  1  0.56866516  0.73060258  0.67759011  1
  H  H465  1  0.56385175  0.56651043  0.53967558  1
  C  C466  1  0.51081530  0.74738904  0.70294589  1
  O  O467  1  0.53799958  0.59285811  0.16225505  1
  C  C468  1  0.61433689  0.55455479  0.66221738  1
  O  O469  1  0.68984001  0.56057075  0.90964268  1
  C  C470  1  0.58754086  0.61966723  0.88654037  1
  H  H471  1  0.69755202  0.51303029  0.11082838  1
  H  H472  1  0.55457119  0.73114270  0.46819259  1
  C  C473  1  0.50505050  0.71718539  0.05913132  1
  H  H474  1  0.57854795  0.64059759  0.98416228  1
  H  H475  1  0.73574873  0.57926330  0.16138800  1
  C  C476  1  0.65220824  0.52911847  0.32730362  1
  H  H477  1  0.72178757  0.69127989  0.59795938  1
  C  C478  1  0.72316880  0.66615867  0.50774605  1
  H  H479  1  0.71992227  0.65733467  0.10123273  1
  C  C480  1  0.73458846  0.59358535  0.41517252  1
  C  C481  1  0.54044382  0.72716739  0.35384622  1
  C  C482  1  0.72294043  0.67644989  0.34445712  1
  C  C483  1  0.71913083  0.72168450  0.28352497  1
  H  H484  1  0.63724629  0.60496715  0.01735615  1
  C  C485  1  0.67067769  0.54927651  0.80039255  1
  C  C486  1  0.53045419  0.67160354  0.70038748  1
  H  H487  1  0.53761757  0.54903271  0.81412693  1
  C  C488  1  0.62118249  0.60041642  0.90894046  1
  H  H489  1  0.56460649  0.53442633  0.05853655  1
  H  H490  1  0.73199211  0.61143352  0.66075701  1
  C  C491  1  0.68347164  0.73692568  0.27858412  1
  C  C492  1  0.72321431  0.64547800  0.21928136  1
  C  C493  1  0.51603805  0.69410436  0.32783372  1
  H  H494  1  0.61034494  0.74021645  0.21059251  1
  C  C495  1  0.73006331  0.62412069  0.53690169  1
  C  C496  1  0.73271610  0.60420421  0.25327903  1
  C  C497  1  0.50158794  0.69908883  0.67715057  1
  H  H498  1  0.74395516  0.54355786  0.96382220  1
  C  C499  1  0.51296492  0.53617642  0.75302241  1
  H  H500  1  0.53647127  0.50667671  0.22283302  1
  O  O501  1  0.51561200  0.51948974  0.27948440  1
  O  O502  1  0.74830582  0.52446933  0.35180087  1
  H  H503  1  0.50970172  0.50159571  0.77018759  1
  H  H504  1  0.67529170  0.74297686  0.91599837  1
  O  O505  1  0.53513978  0.85538446  0.29438302  1
  C  C506  1  0.67741255  0.77879448  0.21860626  1
  C  C507  1  0.55111856  0.94467300  0.58011580  1
  C  C508  1  0.57393934  0.97620655  0.46504054  1
  O  O509  1  0.53290070  0.95861333  0.00715472  1
  H  H510  1  0.60248618  0.90127810  0.95231029  1
  C  C511  1  0.61006269  0.98594297  0.52687304  1
  C  C512  1  0.59999213  0.90062685  0.37294575  1
  C  C513  1  0.57333800  0.79235644  0.25005175  1
  H  H514  1  0.56697542  0.93532424  0.68594914  1
  C  C515  1  0.65421652  0.79949675  0.58225218  1
  C  C516  1  0.60254256  0.79367051  0.74986380  1
  C  C517  1  0.63119423  0.92047697  0.44051218  1
  C  C518  1  0.50016017  0.81934479  0.80848690  1
  C  C519  1  0.63558023  0.84361776  0.27656080  1
  H  H520  1  0.60430393  0.84383608  0.98636970  1
  H  H521  1  0.72944627  0.82327432  0.87349108  1
  H  H522  1  0.65942971  0.90572007  0.41690795  1
  C  C523  1  0.56899587  0.93241075  0.40541603  1
  H  H524  1  0.65746716  0.86747644  0.30270524  1
  C  C525  1  0.54923373  0.75658225  0.69983264  1
  H  H526  1  0.66741930  0.80800663  0.47071896  1
  H  H527  1  0.54767238  0.92661247  0.31189963  1
  H  H528  1  0.70272043  0.83393929  0.09624798  1
  C  C529  1  0.56561826  0.83797314  0.27447482  1
  O  O530  1  0.63726366  0.95595030  0.51604575  1
  C  C531  1  0.59972398  0.86025118  0.29732804  1
  C  C532  1  0.74033149  0.77988803  0.14150618  1
  C  C533  1  0.71321048  0.77592475  0.67177570  1
  O  O534  1  0.55134616  0.86418175  0.88381195  1
  C  C535  1  0.70796981  0.80225887  0.14937015  1
  C  C536  1  0.53849295  0.82920446  0.81843444  1
  C  C537  1  0.59113706  0.86954770  0.91514510  1
  O  O538  1  0.72847995  0.79239262  0.56342462  1
  C  C539  1  0.63984331  0.79978077  0.24098754  1
  C  C540  1  0.56075333  0.79681251  0.75308972  1
  H  H541  1  0.59966392  0.82535691  0.51444727  1
  C  C542  1  0.67442935  0.77994329  0.70148785  1
  C  C543  1  0.61697851  0.80843031  0.60258065  1
  C  C544  1  0.60771291  0.77436865  0.23422337  1
  C  C545  1  0.65861221  0.76265803  0.84029699  1
  H  H546  1  0.59957253  0.86142438  0.78697318  1
  C  C547  1  0.62174732  0.77004519  0.87251079  1
  H  H548  1  0.53129474  0.77311608  0.97124488  1
  C  C549  1  0.51410777  0.95731138  0.61436676  1
  H  H550  1  0.50740825  0.87501646  0.06508538  1
  C  C551  1  0.53354475  0.99554552  0.98087193  1
  H  H552  1  0.60911865  0.76165104  0.98855760  1
  C  C553  1  0.52645317  0.75198178  0.07699189  1
  H  H554  1  0.50230759  0.80556323  0.41875732  1
  O  O555  1  0.73096350  0.75418961  0.78131380  1
  H  H556  1  0.50083281  0.94169072  0.71629373  1
  C  C557  1  0.54482920  0.75754209  0.22717741  1
  C  C558  1  0.91416829  0.20537147  0.20152708  1
  C  C559  1  0.80158076  0.23006143  0.72834118  1
  H  H560  1  0.80863162  0.09810231  0.71795201  1
  H  H561  1  0.86613178  0.20977692  0.84888224  1
  H  H562  1  0.91557701  0.03255439  0.65292154  1
  C  C563  1  0.92951211  0.18052915  0.85807894  1
  Cu  Cu564  1  0.79146866  0.19122512  0.14164485  1
  O  O565  1  0.84035684  0.18538742  0.15988387  1
  C  C566  1  0.90533232  0.17324986  0.46889862  1
  C  C567  1  0.92455450  0.22261975  0.81002932  1
  C  C568  1  0.86548826  0.17634233  0.81733910  1
  Cu  Cu569  1  0.78608452  0.17926793  0.43227587  1
  C  C570  1  0.85392969  0.17561640  0.29163593  1
  C  C571  1  0.99129601  0.19636496  0.94847199  1
  C  C572  1  0.83153805  0.15800212  0.77403963  1
  C  C573  1  0.94101471  0.18381119  0.50274341  1
  H  H574  1  0.88921754  0.15182777  0.54331069  1
  C  C575  1  0.79810067  0.18580387  0.76571769  1
  O  O576  1  0.93389865  0.08601409  0.80062429  1
  C  C577  1  0.96085904  0.21086381  0.39223814  1
  C  C578  1  0.90433715  0.10719550  0.80389980  1
  C  C579  1  0.89686127  0.15083510  0.83013426  1
  C  C580  1  0.93323690  0.03994293  0.76315400  1
  C  C581  1  0.86527604  0.04380739  0.77056495  1
  C  C582  1  0.86595065  0.08896507  0.77195982  1
  C  C583  1  0.83375772  0.11411127  0.75162191  1
  H  H584  1  0.91964559  0.02140258  0.85632022  1
  H  H585  1  0.95980212  0.02328995  0.74182961  1
  H  H586  1  0.87099882  0.01473133  0.05369577  1
  C  C587  1  0.89244943  0.18447458  0.31814957  1
  C  C588  1  0.96302604  0.16734353  0.93496464  1
  O  O589  1  0.83457922  0.16311128  0.40902402  1
  H  H590  1  0.96602922  0.13292103  0.97638001  1
  H  H591  1  0.95359537  0.17360152  0.61752770  1
  H  H592  1  0.90077070  0.23132557  0.74050741  1
  H  H593  1  0.89884043  0.20935087  0.08908277  1
  C  C594  1  0.94929264  0.22109107  0.23386666  1
  C  C595  1  0.86461641  0.00054250  0.77394111  1
  H  H596  1  0.82770458  0.24404145  0.68651967  1
  C  C597  1  0.76228325  0.17018648  0.79654234  1
  C  C598  1  0.98552516  0.23893718  0.89952942  1
  H  H599  1  0.75709924  0.13902634  0.82987612  1
  C  C600  1  0.99766184  0.22937341  0.43570436  1
  H  H601  1  0.96381820  0.23906370  0.14578569  1
  H  H602  1  0.77502064  0.32490407  0.94945345  1
  H  H603  1  0.90840625  0.37712814  0.26467101  1
  C  C604  1  0.89929024  0.39785624  0.16180252  1
  C  C605  1  0.89905669  0.47198982  0.47450433  1
  H  H606  1  0.84548936  0.41647238  0.22477966  1
  O  O607  1  0.76703746  0.43708811  0.41495960  1
  C  C608  1  0.96484958  0.47721023  0.48371876  1
  H  H609  1  0.77070764  0.28420200  0.44233395  1
  C  C610  1  0.77477210  0.29911377  0.69924126  1
  C  C611  1  0.86315484  0.48986030  0.42709685  1
  H  H612  1  0.88645608  0.47268356  0.78017987  1
  H  H613  1  0.77173622  0.36011106  0.36046455  1
  C  C614  1  0.86277137  0.44840697  0.00664251  1
  C  C615  1  0.77208692  0.37462884  0.76757047  1
  H  H616  1  0.87368848  0.41060971  0.51828491  1
  C  C617  1  0.77447319  0.33240510  0.82060809  1
  C  C618  1  0.77461776  0.35194366  0.48484375  1
  C  C619  1  0.89056381  0.45272790  0.88944925  1
  C  C620  1  0.96227149  0.37976661  0.07533424  1
  C  C621  1  0.93220064  0.40926572  0.54386442  1
  C  C622  1  0.92172794  0.42899243  0.91473340  1
  C  C623  1  0.95195758  0.25223147  0.83201884  1
  C  C624  1  0.76517316  0.42768267  0.56143105  1
  H  H625  1  0.79885661  0.42545316  0.08009465  1
  C  C626  1  0.92779118  0.40397062  0.05079181  1
  H  H627  1  0.97203183  0.29007003  0.46764370  1
  C  C628  1  0.76523816  0.48115235  0.04084375  1
  C  C629  1  0.83094013  0.47831188  0.99756577  1
  C  C630  1  0.86537444  0.41773342  0.13587929  1
  O  O631  1  0.96491670  0.35284352  0.17647411  1
  H  H632  1  0.94771760  0.28527719  0.78661465  1
  H  H633  1  0.94526903  0.42665865  0.83716320  1
  C  C634  1  0.89943208  0.42842543  0.51328686  1
  C  C635  1  0.77435652  0.30904397  0.53327913  1
  O  O636  1  0.99304597  0.39130577  0.00589016  1
  H  H637  1  0.93178960  0.37665669  0.58962781  1
  C  C638  1  0.96523039  0.43277664  0.52765974  1
  C  C639  1  0.79884655  0.45881433  0.04219698  1
  C  C640  1  0.77236261  0.38304741  0.60299226  1
  H  H641  1  0.97730121  0.35008311  0.49362990  1
  O  O642  1  0.76034750  0.45641770  0.66268514  1
  O  O643  1  0.83413600  0.46604737  0.41366622  1
  H  H644  1  0.76776405  0.40153163  0.85894371  1
  H  H645  1  0.75395880  0.39243504  0.09126329  1
  C  C646  1  0.93162287  0.49548502  0.45698657  1
  Cu  Cu647  1  0.79116448  0.48859676  0.36800819  1
  H  H648  1  0.99001833  0.49549766  0.45113910  1
  C  C649  1  0.99914929  0.27327687  0.46675123  1
  C  C650  1  0.76914297  0.25315378  0.74301463  1
  O  O651  1  0.87170483  0.53692352  0.95352206  1
  C  C652  1  0.82189419  0.59009455  0.73504238  1
  O  O653  1  0.85568793  0.71147636  0.57424402  1
  C  C654  1  0.97054407  0.73058841  0.56014471  1
  C  C655  1  0.83513643  0.62873743  0.68055035  1
  H  H656  1  0.91049017  0.58240223  0.98604939  1
  H  H657  1  0.86517043  0.60305442  0.02685843  1
  O  O658  1  0.78528435  0.72828314  0.19247101  1
  C  C659  1  0.88058799  0.58221166  0.94194478  1
  H  H660  1  0.87966058  0.59855228  0.82095922  1
  C  C661  1  0.80290286  0.54228255  0.94800354  1
  C  C662  1  0.82820460  0.66690863  0.76221988  1
  C  C663  1  0.83848575  0.70770489  0.70287108  1
  C  C664  1  0.80562066  0.58786073  0.88610362  1
  C  C665  1  0.80833357  0.66519905  0.90502029  1
  C  C666  1  0.80006432  0.69318955  0.28724981  1
  H  H667  1  0.93286215  0.52800569  0.41719246  1
  H  H668  1  0.84833889  0.63417859  0.57090443  1
  H  H669  1  0.80168428  0.69335715  0.97200963  1
  H  H670  1  0.82939223  0.68680477  0.25609126  1
  H  H671  1  0.80023912  0.70041659  0.41861827  1
  C  C672  1  0.79652103  0.62588697  0.96600990  1
  H  H673  1  0.82782064  0.56164316  0.66565806  1
  C  C674  1  0.83795549  0.52212085  0.95744101  1
  Cu  Cu675  1  0.78104722  0.74994091  0.78401126  1
  O  O676  1  0.86346794  0.52726826  0.39221438  1
  O  O677  1  0.96824138  0.70981723  0.43865037  1
  C  C678  1  0.76890845  0.52431372  0.98687570  1
  H  H679  1  0.78580569  0.66100213  0.27155037  1
  H  H680  1  0.78306036  0.62341834  0.07812386  1
  C  C681  1  0.75022284  0.73964179  0.20380198  1
  O  O682  1  0.82904393  0.74201450  0.78454452  1
  O  O683  1  0.87858748  0.88011792  0.83517809  1
  C  C684  1  0.93736631  0.82311167  0.24046488  1
  C  C685  1  0.96055983  0.78614213  0.22861951  1
  C  C686  1  0.78172790  0.85288758  0.81317483  1
  H  H687  1  0.77284121  0.86500313  0.70075202  1
  O  O688  1  0.87797916  0.84442585  0.30184367  1
  C  C689  1  0.82919192  0.83197623  0.00795114  1
  C  C690  1  0.81810526  0.85565260  0.87371675  1
  H  H691  1  0.92815734  0.89342274  0.21682459  1
  Cu  Cu692  1  0.86138068  0.87054473  0.46757335  1
  O  O693  1  0.83891532  0.89274016  0.64425432  1
  C  C694  1  0.76803885  0.80667264  0.05259097  1
  H  H695  1  0.88401851  0.94780394  0.66799547  1
  C  C696  1  0.84777489  0.87681404  0.78297956  1
  H  H697  1  0.85878127  0.83052036  0.05123828  1
  C  C698  1  0.90042359  0.81281395  0.29590081  1
  H  H699  1  0.89941658  0.93213779  0.98575017  1
  C  C700  1  0.88958184  0.95628005  0.37531503  1
  C  C701  1  0.89434307  0.99653122  0.10193208  1
  C  C702  1  0.80497654  0.80914812  0.10435080  1
  C  C703  1  0.94742038  0.86599498  0.20927816  1
  C  C704  1  0.87537509  0.97904773  0.62483324  1
  C  C705  1  0.89338612  0.96544437  0.21795933  1
  O  O706  1  0.89405677  0.91954802  0.42306408  1
  C  C707  1  0.90710064  0.95572031  0.06988084  1
  H  H708  1  0.98075382  0.78025122  0.79923804  1
  C  C709  1  0.98419419  0.87357063  0.18135195  1
  O  O710  1  0.89101738  0.77607720  0.33526623  1
  O  O711  1  0.87943974  0.98910702  0.48555605  1
  H  H712  1  0.81658285  0.78874265  0.19474440  1
  C  C713  1  0.99822055  0.79300717  0.20845633  1
  C  C714  1  0.75835182  0.83043709  0.91125542  1
  H  H715  1  0.85629981  0.97975581  0.87521806  1
  H  H716  1  0.99382470  0.90568275  0.16244572  1
  H  H717  1  0.94920609  0.75298311  0.22645508  1
  Cu  Cu718  1  0.89561872  0.75211114  0.52817966  1
  O  O719  1  0.94268269  0.75376894  0.60273909  1
