# generated using pymatgen
data_CuH13C21O5
_symmetry_space_group_name_H-M   'P 1'
_cell_length_a   28.99033427
_cell_length_b   32.17743426
_cell_length_c   10.08228433
_cell_angle_alpha   90.00000000
_cell_angle_beta   90.00000000
_cell_angle_gamma   90.00000000
_symmetry_Int_Tables_number   1
_chemical_formula_structural   CuH13C21O5
_chemical_formula_sum   'Cu18 H234 C378 O90'
_cell_volume   9405.10342167
_cell_formula_units_Z   18
loop_
 _symmetry_equiv_pos_site_id
 _symmetry_equiv_pos_as_xyz
  1  'x, y, z'
loop_
 _atom_site_type_symbol
 _atom_site_label
 _atom_site_symmetry_multiplicity
 _atom_site_fract_x
 _atom_site_fract_y
 _atom_site_fract_z
 _atom_site_occupancy
  O  O0  1  0.13976360  0.11761581  0.90195286  1
  C  C1  1  0.08522262  0.22887872  0.94480482  1
  C  C2  1  0.12463580  0.08949537  0.53763342  1
  H  H3  1  0.14587676  0.11334756  0.29926134  1
  O  O4  1  0.18398827  0.10266187  0.07002877  1
  C  C5  1  0.08025368  0.13883727  0.33776619  1
  C  C6  1  0.00327915  0.17688001  0.37494318  1
  C  C7  1  0.15843398  0.12485541  0.53161087  1
  H  H8  1  0.15880040  0.04076254  0.41576305  1
  H  H9  1  0.07215924  0.19106387  0.77050266  1
  C  C10  1  0.22035939  0.17330232  0.49569105  1
  C  C11  1  0.04011180  0.15695063  0.28554957  1
  C  C12  1  0.15683881  0.18959992  0.65674852  1
  O  O13  1  0.08754149  0.13340643  0.66617238  1
  H  H14  1  0.05701005  0.22602092  0.38470036  1
  Cu  Cu15  1  0.23932397  0.12514737  0.04004032  1
  C  C16  1  0.14239208  0.21652970  0.77271416  1
  H  H17  1  0.06453115  0.14118367  0.94725617  1
  H  H18  1  0.05591520  0.07656213  0.63049001  1
  H  H19  1  0.08494724  0.13974471  0.44535513  1
  C  C20  1  0.20156840  0.13301869  0.46840124  1
  C  C21  1  0.10812150  0.12749390  0.11581010  1
  Cu  Cu22  1  0.07645939  0.00292612  0.64975612  1
  C  C23  1  0.08657269  0.09735522  0.61645188  1
  C  C24  1  0.06717060  0.14209122  0.05753739  1
  C  C25  1  0.03443437  0.15743000  0.14406626  1
  C  C26  1  0.11444568  0.12461234  0.25332227  1
  C  C27  1  0.14625886  0.11471394  0.02159322  1
  H  H28  1  0.21546479  0.11070371  0.39578552  1
  C  C29  1  0.12636599  0.05088517  0.47043833  1
  Cu  Cu30  1  0.16626099  0.08340607  0.78058749  1
  C  C31  1  0.19980879  0.19881572  0.59169114  1
  C  C32  1  0.13422958  0.15327047  0.61516724  1
  O  O33  1  0.13686872  0.03543710  0.84985056  1
  O  O34  1  0.23178348  0.03067912  0.59132843  1
  O  O35  1  0.01776227  0.01837251  0.63199305  1
  O  O36  1  0.22787997  0.08581847  0.71802918  1
  O  O37  1  0.09589227  0.02478360  0.48426249  1
  H  H38  1  0.05011170  0.22209479  0.98907737  1
  C  C39  1  0.09681602  0.20947322  0.82430502  1
  C  C40  1  0.02171426  0.21610273  0.41242871  1
  H  H41  1  0.22040399  0.22576776  0.61775564  1
  H  H42  1  0.17110979  0.01441160  0.04645449  1
  H  H43  1  0.00650722  0.08015613  0.36826360  1
  H  H44  1  0.00304022  0.17053734  0.09608507  1
  H  H45  1  0.20953178  0.24872531  0.80363317  1
  C  C46  1  0.17315334  0.24486800  0.83784364  1
  H  H47  1  0.23005419  0.24399068  0.33570887  1
  H  H48  1  0.02973652  0.23657237  0.75043380  1
  C  C49  1  0.14867835  0.00030248  0.80093672  1
  H  H50  1  0.18238225  0.28214485  0.01907513  1
  C  C51  1  0.09572626  0.43919371  0.96212195  1
  H  H52  1  0.06975481  0.44548066  0.21784562  1
  C  C53  1  0.03902631  0.33829772  0.87412694  1
  O  O54  1  0.11692381  0.30995269  0.18213103  1
  H  H55  1  0.16760054  0.44924576  0.98209105  1
  C  C56  1  0.13868004  0.38814659  0.44570554  1
  C  C57  1  0.05581068  0.41609350  0.91886138  1
  O  O58  1  0.03128433  0.39048265  0.25519047  1
  Cu  Cu59  1  0.01305781  0.30182971  0.20882813  1
  C  C60  1  0.04325218  0.37194633  0.55395679  1
  C  C61  1  0.14229908  0.43088903  0.93508683  1
  C  C62  1  0.12426028  0.34877644  0.49644232  1
  C  C63  1  0.04818589  0.30284009  0.79271616  1
  H  H64  1  0.14371725  0.28362880  0.54975679  1
  Cu  Cu65  1  0.07318275  0.35283086  0.19972552  1
  C  C66  1  0.24793376  0.30811685  0.24902482  1
  C  C67  1  0.22122114  0.34596329  0.82763255  1
  C  C68  1  0.20204401  0.38576468  0.84910270  1
  C  C69  1  0.18602340  0.39735308  0.44797737  1
  H  H70  1  0.20117839  0.42612707  0.41838098  1
  C  C71  1  0.11507097  0.36358909  0.84419670  1
  H  H72  1  0.11285829  0.41266432  0.41794436  1
  H  H73  1  0.12609547  0.33201375  0.81209132  1
  C  C74  1  0.15704512  0.31466374  0.52094303  1
  H  H75  1  0.08546292  0.27805578  0.44713688  1
  C  C76  1  0.07238830  0.33905591  0.51252551  1
  C  C77  1  0.15987720  0.26270890  0.95720599  1
  H  H78  1  0.19872954  0.31912200  0.82049542  1
  C  C79  1  0.05903559  0.29969467  0.47837883  1
  C  C80  1  0.07144477  0.37549385  0.87446792  1
  C  C81  1  0.15161315  0.39303038  0.86493270  1
  H  H82  1  0.21886360  0.28731534  0.27825174  1
  C  C83  1  0.20411777  0.32431130  0.51557001  1
  H  H84  1  0.21656796  0.45339513  0.84094485  1
  C  C85  1  0.21718802  0.36543239  0.48025262  1
  H  H86  1  0.07741041  0.30370611  0.72349948  1
  O  O87  1  0.05615801  0.41117109  0.57641825  1
  C  C88  1  0.23016896  0.42136753  0.84269858  1
  H  H89  1  0.20177994  0.35985086  0.21759451  1
  H  H90  1  0.22940068  0.29942356  0.53832555  1
  C  C91  1  0.11415855  0.25923934  0.00721317  1
  C  C92  1  0.09628313  0.27864933  0.12986653  1
  C  C93  1  0.02332403  0.44427883  0.60423500  1
  O  O94  1  0.06124121  0.26380614  0.18206118  1
  H  H95  1  0.02572825  0.49441165  0.90924094  1
  C  C96  1  0.01313961  0.28444912  0.49764584  1
  H  H97  1  0.03637490  0.47644836  0.61298926  1
  C  C98  1  0.09373560  0.47922093  0.03898282  1
  C  C99  1  0.23835771  0.34896882  0.21029681  1
  O  O100  1  0.23450484  0.43490412  0.14006039  1
  H  H101  1  0.00865204  0.47599324  0.07231856  1
  C  C102  1  0.07890869  0.47630213  0.17541282  1
  C  C103  1  0.02314804  0.26619195  0.80628690  1
  O  O104  1  0.01340950  0.42808399  0.91871396  1
  C  C105  1  0.00454444  0.47060476  0.96496031  1
  H  H106  1  0.00752229  0.43802860  0.69864436  1
  C  C107  1  0.17906161  0.49691607  0.50795243  1
  O  O108  1  0.07996671  0.57786665  0.41424705  1
  O  O109  1  0.12315560  0.61440484  0.27637194  1
  C  C110  1  0.10023461  0.57977091  0.31281738  1
  O  O111  1  0.14584691  0.72530909  0.60194384  1
  O  O112  1  0.18450812  0.67056912  0.52499202  1
  Cu  Cu113  1  0.15553968  0.64147096  0.39633613  1
  C  C114  1  0.09856290  0.54715420  0.20974404  1
  C  C115  1  0.17637133  0.71075356  0.53454084  1
  C  C116  1  0.11614881  0.55011939  0.08198754  1
  H  H117  1  0.13203986  0.58267820  0.05944126  1
  H  H118  1  0.12314249  0.52259936  0.88795186  1
  C  C119  1  0.11293839  0.51736338  0.99217828  1
  C  C120  1  0.20796737  0.73947364  0.45990702  1
  C  C121  1  0.24520334  0.72408065  0.38060359  1
  C  C122  1  0.08103884  0.50905133  0.26136182  1
  H  H123  1  0.07119509  0.50383943  0.36396355  1
  O  O124  1  0.20349929  0.52166545  0.50708732  1
  H  H125  1  0.01292691  0.91407343  0.64235287  1
  C  C126  1  0.02324158  0.84591663  0.66601585  1
  C  C127  1  0.16707385  0.86683289  0.62431227  1
  H  H128  1  0.19142877  0.77507898  0.20948488  1
  H  H129  1  0.09934058  0.92225601  0.62298899  1
  C  C130  1  0.17909594  0.79420220  0.12481241  1
  H  H131  1  0.12136489  0.78961054  0.70674397  1
  H  H132  1  0.16274990  0.90043252  0.02426178  1
  O  O133  1  0.18927608  0.84219823  0.13194776  1
  H  H134  1  0.17457360  0.85805948  0.91560023  1
  C  C135  1  0.09912365  0.81732023  0.69071752  1
  H  H136  1  0.24040083  0.88516745  0.83405322  1
  H  H137  1  0.19327024  0.93411674  0.70465621  1
  H  H138  1  0.14963611  0.91930704  0.47710412  1
  H  H139  1  0.16693387  0.79146038  0.54396906  1
  C  C140  1  0.05377654  0.81143545  0.69244836  1
  H  H141  1  0.14043437  0.78538619  0.11338179  1
  C  C142  1  0.20147787  0.84309940  0.68376946  1
  C  C143  1  0.21457536  0.95804226  0.08332561  1
  C  C144  1  0.17537693  0.90035946  0.52742091  1
  C  C145  1  0.22825608  0.91302882  0.88268911  1
  C  C146  1  0.19959557  0.93982531  0.81094062  1
  C  C147  1  0.16249634  0.86549015  0.01450460  1
  C  C148  1  0.03814017  0.88762781  0.64928699  1
  O  O149  1  0.18939786  0.81065428  0.77113583  1
  C  C150  1  0.11808336  0.85854873  0.65753097  1
  C  C151  1  0.19585328  0.78116825  0.47551661  1
  C  C152  1  0.08638002  0.89204495  0.63800691  1
  C  C153  1  0.22380857  0.78204510  0.80410951  1
  C  C154  1  0.18048029  0.97403368  0.87525891  1
  C  C155  1  0.21704585  0.81189444  0.39992886  1
  H  H156  1  0.19641871  0.78011925  0.03758983  1
  C  C157  1  0.23424439  0.92240282  0.01880217  1
  C  C158  1  0.22102001  0.90461400  0.51264249  1
  H  H159  1  0.12530414  0.85390904  0.01824702  1
  H  H160  1  0.20827880  0.84552675  0.40037926  1
  C  C161  1  0.24012219  0.85567552  0.14997593  1
  H  H162  1  0.22032767  0.96518043  0.18902761  1
  C  C163  1  0.18851893  0.98613977  0.00841929  1
  O  O164  1  0.13470032  0.98913705  0.68725203  1
  C  C165  1  0.24683679  0.85215470  0.64856361  1
  H  H166  1  0.03835687  0.77981563  0.71767106  1
  H  H167  1  0.21253596  0.75469852  0.86140369  1
  H  H168  1  0.23431056  0.77262541  0.69623487  1
  C  C169  1  0.30730446  0.17248214  0.46746283  1
  O  O170  1  0.31814932  0.14730574  0.79745863  1
  O  O171  1  0.45037040  0.12587333  0.05830748  1
  H  H172  1  0.40637833  0.02287189  0.11904453  1
  C  C173  1  0.48703312  0.14010662  0.06265806  1
  C  C174  1  0.37311770  0.02038571  0.07557099  1
  C  C175  1  0.30545673  0.06138771  0.63836937  1
  H  H176  1  0.37189172  0.14770998  0.65406973  1
  C  C177  1  0.46935186  0.14476566  0.38286235  1
  C  C178  1  0.39415103  0.17144396  0.46135595  1
  C  C179  1  0.34735418  0.23237325  0.36417403  1
  H  H180  1  0.30948141  0.21120544  0.65794997  1
  C  C181  1  0.40013668  0.02757572  0.44323519  1
  C  C182  1  0.43899916  0.12333438  0.59822378  1
  C  C183  1  0.33414718  0.04530953  0.11025776  1
  C  C184  1  0.35267093  0.01597273  0.45829226  1
  C  C185  1  0.40070090  0.14792549  0.57947458  1
  H  H186  1  0.27535112  0.22018661  0.08406547  1
  O  O187  1  0.29349997  0.15204937  0.00435837  1
  H  H188  1  0.44107903  0.10453592  0.68999572  1
  C  C189  1  0.42942727  0.00484368  0.36283460  1
  C  C190  1  0.47381385  0.12319806  0.50287315  1
  C  C191  1  0.47644425  0.01380890  0.33926654  1
  H  H192  1  0.42391121  0.23188433  0.48193154  1
  C  C193  1  0.29774409  0.06313409  0.13230271  1
  C  C194  1  0.43014313  0.16930426  0.36534529  1
  H  H195  1  0.42581900  0.18591597  0.27027367  1
  C  C196  1  0.29346837  0.21261652  0.86714623  1
  C  C197  1  0.34935543  0.19375385  0.42561694  1
  H  H198  1  0.41570784  0.05462857  0.49143067  1
  C  C199  1  0.26566985  0.19206860  0.43331484  1
  C  C200  1  0.33024280  0.04045401  0.55012675  1
  H  H201  1  0.30933764  0.14141527  0.50901579  1
  C  C202  1  0.30361745  0.16887723  0.88750846  1
  H  H203  1  0.32467455  0.08191404  0.70363713  1
  O  O204  1  0.26172790  0.08524354  0.15453261  1
  H  H205  1  0.49711376  0.14419138  0.31209091  1
  H  H206  1  0.49489145  0.04147021  0.39166773  1
  C  C207  1  0.26320893  0.23028748  0.36141151  1
  C  C208  1  0.25294195  0.05721421  0.65204721  1
  C  C209  1  0.30175169  0.23123743  0.74212554  1
  C  C210  1  0.27868485  0.23366368  0.98327648  1
  Cu  Cu211  1  0.32664061  0.48699210  0.23662278  1
  C  C212  1  0.44435507  0.42717820  0.62969310  1
  C  C213  1  0.43738514  0.40754817  0.75074646  1
  H  H214  1  0.33614364  0.32103804  0.98354408  1
  H  H215  1  0.36527216  0.30426221  0.20020488  1
  H  H216  1  0.30185800  0.28798842  0.62197107  1
  C  C217  1  0.27871892  0.29569325  0.83967130  1
  O  O218  1  0.34551859  0.37303064  0.85976442  1
  C  C219  1  0.29888612  0.37665261  0.84599607  1
  C  C220  1  0.36036668  0.33118603  0.90670017  1
  O  O221  1  0.30999784  0.44297211  0.14064132  1
  H  H222  1  0.36028609  0.43689371  0.96102584  1
  O  O223  1  0.29862912  0.35739006  0.51800583  1
  C  C224  1  0.30504087  0.45686343  0.82512468  1
  H  H225  1  0.46165484  0.37530209  0.36211553  1
  H  H226  1  0.35256431  0.38069555  0.16017829  1
  H  H227  1  0.25051370  0.48468862  0.70106732  1
  C  C228  1  0.48724053  0.34566231  0.17158251  1
  C  C229  1  0.47746181  0.39664644  0.83106309  1
  C  C230  1  0.44382012  0.40480542  0.17095400  1
  C  C231  1  0.27844097  0.41617681  0.83507142  1
  C  C232  1  0.26848921  0.27540129  0.96230007  1
  C  C233  1  0.46533728  0.38240471  0.96822907  1
  C  C234  1  0.26900494  0.34245656  0.83569503  1
  H  H235  1  0.25600136  0.29549556  0.04252489  1
  H  H236  1  0.39615318  0.33340224  0.95079840  1
  Cu  Cu237  1  0.31780203  0.45841506  0.47560468  1
  C  C238  1  0.43927817  0.41420748  0.04131941  1
  C  C239  1  0.29439779  0.29188091  0.26020267  1
  C  C240  1  0.32205522  0.35848464  0.17817316  1
  H  H241  1  0.36033563  0.30944976  0.81912726  1
  C  C242  1  0.33137804  0.31663500  0.21100725  1
  C  C243  1  0.46252243  0.37593805  0.25375558  1
  H  H244  1  0.42610864  0.44254239  0.99595331  1
  C  C245  1  0.29387342  0.27340122  0.72488703  1
  H  H246  1  0.40179589  0.40220062  0.79124686  1
  H  H247  1  0.41495298  0.43989889  0.57384988  1
  C  C248  1  0.34710499  0.46241915  0.89570729  1
  O  O249  1  0.27415719  0.41791079  0.44038558  1
  C  C250  1  0.26713029  0.37866778  0.48370383  1
  C  C251  1  0.27736211  0.37383923  0.17671914  1
  C  C252  1  0.27147197  0.41930255  0.15073928  1
  C  C253  1  0.48928898  0.34804521  0.02824905  1
  H  H254  1  0.45886670  0.27273073  0.39209143  1
  O  O255  1  0.46809297  0.45928489  0.38294315  1
  O  O256  1  0.35640158  0.49836373  0.51613770  1
  C  C257  1  0.28297448  0.48942210  0.75081993  1
  C  C258  1  0.49891306  0.45094473  0.45672362  1
  H  H259  1  0.47576756  0.31887439  0.78127556  1
  C  C260  1  0.49080213  0.43469056  0.59248606  1
  C  C261  1  0.42518959  0.25399403  0.40072069  1
  O  O262  1  0.39220130  0.25770889  0.33388734  1
  C  C263  1  0.30598930  0.25020103  0.32685026  1
  Cu  Cu264  1  0.37469605  0.65850702  0.73594806  1
  Cu  Cu265  1  0.41419363  0.64051862  0.96367669  1
  H  H266  1  0.28804342  0.55279565  0.70684832  1
  O  O267  1  0.39879168  0.71253684  0.72060780  1
  H  H268  1  0.40955337  0.52891280  0.67378036  1
  Cu  Cu269  1  0.46352123  0.71221356  0.96888544  1
  O  O270  1  0.47044936  0.62915458  0.91045278  1
  C  C271  1  0.36712739  0.50218160  0.90115319  1
  O  O272  1  0.35698217  0.65424515  0.06378029  1
  H  H273  1  0.46926771  0.63265025  0.34248328  1
  C  C274  1  0.34510634  0.69322439  0.09481595  1
  C  C275  1  0.42279239  0.55134340  0.59619484  1
  H  H276  1  0.39752174  0.58871608  0.28334578  1
  H  H277  1  0.39768618  0.50799435  0.96155476  1
  C  C278  1  0.41577931  0.58652432  0.37737187  1
  H  H279  1  0.47864839  0.69190193  0.56127831  1
  C  C280  1  0.39591079  0.74554200  0.79127346  1
  C  C281  1  0.34532913  0.53530931  0.83399269  1
  C  C282  1  0.45472009  0.60967777  0.41255217  1
  C  C283  1  0.45154321  0.72246585  0.28595831  1
  O  O284  1  0.34774204  0.60708010  0.76332964  1
  C  C285  1  0.40377960  0.55567376  0.46707759  1
  H  H286  1  0.48065152  0.70817228  0.33461175  1
  C  C287  1  0.38164313  0.71771311  0.16490385  1
  O  O288  1  0.30886566  0.70655402  0.06101232  1
  C  C289  1  0.45440788  0.58105782  0.63378872  1
  O  O290  1  0.39682478  0.58456020  0.91004639  1
  C  C291  1  0.36237794  0.57763194  0.83237897  1
  C  C292  1  0.41930091  0.69688582  0.22187142  1
  H  H293  1  0.42180797  0.66347899  0.22109449  1
  C  C294  1  0.30483102  0.52723023  0.75917389  1
  C  C295  1  0.47284200  0.60979385  0.53906813  1
  H  H296  1  0.34589702  0.74367777  0.58212686  1
  C  C297  1  0.36542735  0.52790043  0.43685852  1
  H  H298  1  0.47031745  0.58107730  0.73295974  1
  O  O299  1  0.34273959  0.53168366  0.32987942  1
  H  H300  1  0.25815746  0.69102628  0.37790098  1
  H  H301  1  0.29943324  0.74487819  0.24956008  1
  O  O302  1  0.42006602  0.74814355  0.89580236  1
  H  H303  1  0.49864147  0.55996656  0.91564677  1
  C  C304  1  0.34920178  0.80936822  0.85429957  1
  H  H305  1  0.42217622  0.81436732  0.59966412  1
  C  C306  1  0.25301172  0.79717833  0.31834317  1
  C  C307  1  0.38352772  0.90311183  0.20430833  1
  C  C308  1  0.30202131  0.79649793  0.60484447  1
  O  O309  1  0.45020301  0.84969638  0.38288191  1
  C  C310  1  0.31887665  0.84175055  0.25948682  1
  H  H311  1  0.25524602  0.79339000  0.85926129  1
  O  O312  1  0.49606724  0.98889053  0.26209119  1
  O  O313  1  0.39793890  0.96580824  0.91889981  1
  C  C314  1  0.42012650  0.96574975  0.28478221  1
  C  C315  1  0.42453403  0.89214493  0.13565166  1
  H  H316  1  0.42179860  0.86958063  0.05103027  1
  C  C317  1  0.48552764  0.87169657  0.82151387  1
  H  H318  1  0.29949162  0.86172408  0.88128198  1
  C  C319  1  0.43129009  0.83809999  0.67277554  1
  C  C320  1  0.26864040  0.75490194  0.30973380  1
  H  H321  1  0.42122706  0.90846293  0.44655878  1
  C  C322  1  0.45421827  0.90332555  0.85069143  1
  H  H323  1  0.46292330  0.92793029  0.92296672  1
  C  C324  1  0.45334932  0.89126499  0.44378705  1
  C  C325  1  0.39716839  0.86707554  0.70409985  1
  C  C326  1  0.31366781  0.83711430  0.81927489  1
  C  C327  1  0.46156810  0.95517302  0.22805355  1
  C  C328  1  0.47476525  0.83784550  0.73438251  1
  C  C329  1  0.37710186  0.93140287  0.83172941  1
  C  C330  1  0.41037603  0.78665772  0.21441714  1
  O  O331  1  0.33914872  0.93107465  0.79542553  1
  H  H332  1  0.37019976  0.81080665  0.94662834  1
  C  C333  1  0.33705636  0.87658692  0.19399296  1
  H  H334  1  0.36339269  0.86433694  0.66273047  1
  C  C335  1  0.37930243  0.94009863  0.27371139  1
  H  H336  1  0.29527603  0.89741411  0.55081974  1
  H  H337  1  0.40825774  0.82065161  0.21188581  1
  C  C338  1  0.41074075  0.90008353  0.79221539  1
  H  H339  1  0.33995396  0.82282773  0.32611110  1
  C  C340  1  0.49322437  0.78804515  0.32463806  1
  H  H341  1  0.47813638  0.91105346  0.38703050  1
  C  C342  1  0.46477422  0.91662327  0.16249404  1
  C  C343  1  0.30904608  0.90397156  0.11807094  1
  H  H344  1  0.32030304  0.93253526  0.07261284  1
  H  H345  1  0.34694718  0.94859236  0.32865276  1
  C  C346  1  0.28946301  0.82942900  0.69554951  1
  C  C347  1  0.25988588  0.88732305  0.56455585  1
  H  H348  1  0.28453868  0.79339587  0.51398480  1
  H  H349  1  0.46405292  0.88995082  0.54521384  1
  H  H350  1  0.47886636  0.75551567  0.65613304  1
  H  H351  1  0.49490955  0.83725628  0.14645553  1
  C  C352  1  0.27066132  0.83280493  0.23283868  1
  H  H353  1  0.34330080  0.77639868  0.12502854  1
  C  C354  1  0.44920386  0.76717664  0.27815060  1
  C  C355  1  0.35829672  0.77494600  0.76728196  1
  C  C356  1  0.26289425  0.88952936  0.09561004  1
  C  C357  1  0.37507026  0.76144544  0.16488764  1
  C  C358  1  0.33596156  0.76914853  0.64328177  1
  H  H359  1  0.33978336  0.99036796  0.40348737  1
  H  H360  1  0.33403773  0.99252151  0.93110971  1
  C  C361  1  0.49040102  0.83027724  0.36711319  1
  C  C362  1  0.37015203  0.99170647  0.97723348  1
  O  O363  1  0.62130478  0.01844445  0.74227394  1
  Cu  Cu364  1  0.56741660  0.04470251  0.68540668  1
  C  C365  1  0.68770638  0.24596889  0.04429743  1
  C  C366  1  0.68343413  0.05277114  0.50645945  1
  H  H367  1  0.70999095  0.07222935  0.45672256  1
  C  C368  1  0.72919566  0.07810551  0.69406161  1
  C  C369  1  0.53534801  0.15455846  0.07509127  1
  O  O370  1  0.54327800  0.09683591  0.43325876  1
  H  H371  1  0.67249807  0.03397452  0.85034974  1
  C  C372  1  0.65908057  0.03615256  0.74374518  1
  C  C373  1  0.58791059  0.20577233  0.98493048  1
  C  C374  1  0.71596267  0.10977506  0.77528317  1
  Cu  Cu375  1  0.65683189  0.22943421  0.62747026  1
  H  H376  1  0.64317525  0.13656280  0.22159308  1
  O  O377  1  0.65236232  0.03714214  0.43660253  1
  C  C378  1  0.65838870  0.03900758  0.27795816  1
  C  C379  1  0.51364904  0.09552074  0.51901119  1
  C  C380  1  0.62265238  0.18736755  0.06882270  1
  O  O381  1  0.58140438  0.19047418  0.45905095  1
  C  C382  1  0.57646819  0.22703541  0.50437718  1
  O  O383  1  0.68079386  0.06656958  0.23639820  1
  Cu  Cu384  1  0.64373986  0.17063341  0.46820699  1
  O  O385  1  0.51527025  0.07062348  0.62285553  1
  C  C386  1  0.68868720  0.05249548  0.64554686  1
  H  H387  1  0.55984017  0.11237088  0.23141328  1
  C  C388  1  0.66760144  0.20626874  0.02511812  1
  H  H389  1  0.59641939  0.22993178  0.91365622  1
  C  C390  1  0.68525445  0.17405097  0.94111328  1
  C  C391  1  0.73206130  0.17579600  0.89915623  1
  C  C392  1  0.61493898  0.15179631  0.15581895  1
  H  H393  1  0.66518469  0.14496739  0.93224570  1
  H  H394  1  0.68044527  0.11419806  0.80313613  1
  H  H395  1  0.54859371  0.21303391  0.24698607  1
  C  C396  1  0.54336810  0.18944865  0.98469579  1
  C  C397  1  0.56911368  0.13896349  0.16241600  1
  C  C398  1  0.73362419  0.18470772  0.52827122  1
  O  O399  1  0.71671855  0.20755801  0.62040749  1
  O  O400  1  0.70756453  0.16164422  0.45750735  1
  H  H401  1  0.62916694  0.00677988  0.08959536  1
  C  C402  1  0.53948888  0.24445132  0.28614863  1
  O  O403  1  0.59299707  0.23690919  0.61440181  1
  H  H404  1  0.51726612  0.20043119  0.91670331  1
  C  C405  1  0.63267182  0.00651868  0.20398779  1
  C  C406  1  0.73109805  0.24561326  0.97430210  1
  H  H407  1  0.61485408  0.24096410  0.18951046  1
  C  C408  1  0.70912647  0.45365886  0.14609867  1
  O  O409  1  0.67609927  0.27910685  0.53414180  1
  C  C410  1  0.62287869  0.46743792  0.14105903  1
  C  C411  1  0.53072797  0.42621551  0.66769150  1
  O  O412  1  0.67224967  0.27799464  0.11227855  1
  H  H413  1  0.59037984  0.38928858  0.08829367  1
  O  O414  1  0.57968010  0.45543501  0.13547094  1
  C  C415  1  0.52078038  0.32479861  0.38959123  1
  H  H416  1  0.62613135  0.44695715  0.39718333  1
  H  H417  1  0.69630347  0.30166416  0.32037517  1
  C  C418  1  0.54226196  0.29684488  0.46950629  1
  C  C419  1  0.55140950  0.25579321  0.41730768  1
  H  H420  1  0.62543519  0.29008597  0.28133725  1
  C  C421  1  0.66105218  0.34666274  0.45171533  1
  H  H422  1  0.53181016  0.40284242  0.16463838  1
  C  C423  1  0.51072260  0.31722435  0.81529552  1
  H  H424  1  0.58821145  0.40446263  0.25071713  1
  H  H425  1  0.62453190  0.38969159  0.57763975  1
  H  H426  1  0.55628218  0.30560118  0.56488258  1
  C  C427  1  0.68052935  0.33328602  0.33090619  1
  H  H428  1  0.74657286  0.27056903  0.74437463  1
  H  H429  1  0.69590202  0.35515724  0.13421482  1
  C  C430  1  0.66364399  0.44103171  0.16699431  1
  C  C431  1  0.57045681  0.41024435  0.15429613  1
  C  C432  1  0.66110716  0.40252343  0.25510571  1
  C  C433  1  0.68292635  0.36270284  0.23256455  1
  C  C434  1  0.66067544  0.31559527  0.56235249  1
  H  H435  1  0.54409935  0.46255790  0.32207889  1
  O  O436  1  0.64245819  0.32424802  0.66630324  1
  C  C437  1  0.63915407  0.38387545  0.47680453  1
  C  C438  1  0.63995083  0.41467324  0.37772805  1
  H  H439  1  0.51328036  0.35768879  0.41872636  1
  O  O440  1  0.54875474  0.45831009  0.41625903  1
  H  H441  1  0.54877605  0.40602681  0.86223664  1
  C  C442  1  0.62795407  0.27402558  0.18021587  1
  H  H443  1  0.53205880  0.34205906  0.77255835  1
  C  C444  1  0.52116221  0.41041527  0.79052178  1
  H  H445  1  0.56586120  0.43649907  0.63916243  1
  C  C446  1  0.51987028  0.27280061  0.20525588  1
  O  O447  1  0.51623252  0.32092189  0.95906188  1
  H  H448  1  0.52577835  0.28695434  0.77944877  1
  H  H449  1  0.73861911  0.43133867  0.16442325  1
  H  H450  1  0.51209275  0.26708419  0.10107011  1
  C  C451  1  0.50884231  0.31398297  0.25576331  1
  C  C452  1  0.71726641  0.49622283  0.10783703  1
  H  H453  1  0.60460522  0.29085376  0.10720792  1
  C  C454  1  0.50299878  0.63771525  0.98569123  1
  C  C455  1  0.58996903  0.67741869  0.68083843  1
  O  O456  1  0.55898816  0.56772553  0.62372054  1
  C  C457  1  0.67397626  0.55221312  0.80124493  1
  C  C458  1  0.57490285  0.61423898  0.10935709  1
  C  C459  1  0.58768069  0.63526942  0.68947888  1
  C  C460  1  0.60758338  0.58279508  0.13684620  1
  C  C461  1  0.63256924  0.61536644  0.73707075  1
  C  C462  1  0.56027143  0.53405702  0.00702600  1
  C  C463  1  0.64360281  0.63299777  0.42354371  1
  C  C464  1  0.63244400  0.57557226  0.80508375  1
  H  H465  1  0.61524793  0.69657108  0.72630417  1
  H  H466  1  0.60020623  0.56752960  0.85285963  1
  H  H467  1  0.61340095  0.64881612  0.47264327  1
  C  C468  1  0.53579508  0.60609372  0.02972902  1
  C  C469  1  0.55311437  0.60916709  0.62867105  1
  C  C470  1  0.63436297  0.50935686  0.12240868  1
  C  C471  1  0.51595196  0.63348988  0.58059316  1
  H  H472  1  0.67259764  0.66525636  0.65389174  1
  C  C473  1  0.71717697  0.72745746  0.32490100  1
  H  H474  1  0.67433809  0.51963634  0.83388832  1
  C  C475  1  0.53031259  0.56572755  0.97306519  1
  C  C476  1  0.63206876  0.71814199  0.34829771  1
  C  C477  1  0.67671125  0.70321695  0.34229550  1
  C  C478  1  0.70240737  0.52659924  0.42993331  1
  C  C479  1  0.69000759  0.57066426  0.39784875  1
  H  H480  1  0.60445705  0.69633030  0.34729507  1
  H  H481  1  0.57977243  0.64578164  0.14831897  1
  C  C482  1  0.71275980  0.57085351  0.73691669  1
  H  H483  1  0.63831042  0.59028216  0.19760078  1
  H  H484  1  0.51362556  0.55999308  0.45738870  1
  H  H485  1  0.68570944  0.55969813  0.10174838  1
  O  O486  1  0.74135051  0.50990238  0.39893147  1
  C  C487  1  0.67742911  0.65585569  0.35534694  1
  C  C488  1  0.55143362  0.69829441  0.62157508  1
  C  C489  1  0.67402972  0.63634277  0.70468409  1
  O  O490  1  0.50738126  0.67545161  0.03017969  1
  C  C491  1  0.71416590  0.63426537  0.29377608  1
  C  C492  1  0.59928122  0.54382813  0.08192487  1
  H  H493  1  0.55372786  0.50294512  0.96296689  1
  C  C494  1  0.71280040  0.61261936  0.69452602  1
  C  C495  1  0.53296364  0.54401169  0.53410239  1
  H  H496  1  0.53164531  0.72881851  0.28960073  1
  C  C497  1  0.67885764  0.52505623  0.11407959  1
  H  H498  1  0.62481797  0.57643452  0.50629346  1
  C  C499  1  0.65044726  0.59152864  0.44801195  1
  H  H500  1  0.74304435  0.62439207  0.64042783  1
  C  C501  1  0.51165994  0.67559279  0.57694361  1
  O  O502  1  0.67248493  0.50621920  0.48493677  1
  C  C503  1  0.72075269  0.59164200  0.31480695  1
  H  H504  1  0.50675792  0.52736272  0.60122722  1
  H  H505  1  0.54981507  0.51783083  0.46796661  1
  H  H506  1  0.73903538  0.64870885  0.22403658  1
  C  C507  1  0.74971531  0.54195775  0.70897353  1
  H  H508  1  0.74362034  0.57432359  0.00429138  1
  C  C509  1  0.55354945  0.74568835  0.63180984  1
  H  H510  1  0.62423294  0.73815925  0.58172869  1
  H  H511  1  0.60769170  0.84158535  0.40126830  1
  C  C512  1  0.69887892  0.79257543  0.65268009  1
  H  H513  1  0.63273179  0.88125388  0.60298221  1
  C  C514  1  0.57721849  0.82471479  0.37382311  1
  C  C515  1  0.58459061  0.91304054  0.00067662  1
  H  H516  1  0.52518916  0.89014670  0.64255917  1
  H  H517  1  0.73297249  0.87761082  0.01861801  1
  C  C518  1  0.56283055  0.84141099  0.06407528  1
  C  C519  1  0.53225866  0.76158658  0.32297854  1
  H  H520  1  0.56969900  0.80863120  0.07798630  1
  C  C521  1  0.65935196  0.81929362  0.63369591  1
  H  H522  1  0.65239216  0.81783302  0.25645924  1
  C  C523  1  0.51316362  0.77039107  0.65885908  1
  C  C524  1  0.57127574  0.91179178  0.32121678  1
  H  H525  1  0.52023341  0.86945179  0.86794127  1
  C  C526  1  0.60838738  0.97883742  0.27356063  1
  C  C527  1  0.52013282  0.85780407  0.09840557  1
  H  H528  1  0.72703631  0.85917359  0.85053779  1
  H  H529  1  0.57264130  0.96759725  0.45579387  1
  H  H530  1  0.71793385  0.84363845  0.40013811  1
  H  H531  1  0.53364720  0.96178449  0.03644189  1
  C  C532  1  0.51724899  0.81266134  0.69055664  1
  C  C533  1  0.53661256  0.84632736  0.38375787  1
  C  C534  1  0.64266051  0.85718763  0.97662315  1
  C  C535  1  0.59952109  0.76065584  0.62608211  1
  C  C536  1  0.56752206  0.82434450  0.68892839  1
  O  O537  1  0.65747396  0.82299844  0.97392042  1
  H  H538  1  0.58151440  0.89625259  0.22861894  1
  C  C539  1  0.57513369  0.78182139  0.33683550  1
  H  H540  1  0.61221170  0.93617746  0.96722817  1
  C  C541  1  0.65953319  0.78755826  0.29941363  1
  C  C542  1  0.66398726  0.86213466  0.60998723  1
  C  C543  1  0.58490009  0.95350227  0.35722001  1
  H  H544  1  0.70960159  0.91620310  0.60631000  1
  C  C545  1  0.59619678  0.86952200  0.01369702  1
  C  C546  1  0.72096862  0.88813438  0.91923503  1
  H  H547  1  0.69795899  0.75851068  0.67902737  1
  C  C548  1  0.60962985  0.80328499  0.64774570  1
  O  O549  1  0.67396245  0.89271129  0.93526358  1
  C  C550  1  0.73177142  0.80345684  0.22575242  1
  C  C551  1  0.70703104  0.88179617  0.60607192  1
  C  C552  1  0.54868356  0.89082610  0.42196064  1
  C  C553  1  0.53758876  0.90921880  0.54975111  1
  O  O554  1  0.53672938  0.94316499  0.59717040  1
  C  C555  1  0.54264628  0.92770077  0.03947488  1
  C  C556  1  0.70316159  0.76961485  0.29236085  1
  C  C557  1  0.62259748  0.76117620  0.33870061  1
  C  C558  1  0.74149590  0.81173925  0.63554248  1
  C  C559  1  0.74452063  0.85553237  0.62161452  1
  C  C560  1  0.50860403  0.90048903  0.09899173  1
  C  C561  1  0.73191005  0.84217537  0.29792650  1
  H  H562  1  0.74593270  0.91332316  0.88103828  1
  C  C563  1  0.80576575  0.15787154  0.41745333  1
  C  C564  1  0.85346269  0.16104556  0.40628074  1
  C  C565  1  0.75799394  0.21345556  0.92218139  1
  C  C566  1  0.94635967  0.23002860  0.50847684  1
  H  H567  1  0.78545640  0.14041256  0.34453451  1
  H  H568  1  0.79672387  0.22515487  0.68879846  1
  H  H569  1  0.79282936  0.21649545  0.88065205  1
  H  H570  1  0.84711994  0.00994196  0.55736058  1
  C  C571  1  0.99344449  0.24094178  0.48380469  1
  C  C572  1  0.85658904  0.21119020  0.58661828  1
  C  C573  1  0.93852355  0.02833583  0.69410085  1
  C  C574  1  0.95914447  0.16000473  0.40605797  1
  C  C575  1  0.93582008  0.06775216  0.63518108  1
  C  C576  1  0.80835941  0.09412881  0.71162199  1
  C  C577  1  0.82414467  0.03311925  0.49749534  1
  H  H578  1  0.82896304  0.14282173  0.84695159  1
  C  C579  1  0.86898468  0.05474119  0.19254118  1
  C  C580  1  0.85666107  0.07691516  0.69719007  1
  C  C581  1  0.89680430  0.09212321  0.63310608  1
  C  C582  1  0.85978020  0.03808449  0.76617265  1
  C  C583  1  0.81010963  0.20740517  0.60591968  1
  C  C584  1  0.77370477  0.07146779  0.63700430  1
  H  H585  1  0.87066402  0.14441103  0.32096258  1
  H  H586  1  0.89144738  0.12129216  0.57617129  1
  C  C587  1  0.79819309  0.12755258  0.79705837  1
  H  H588  1  0.96714644  0.07846116  0.58483731  1
  C  C589  1  0.97785269  0.09276389  0.30549704  1
  O  O590  1  0.77788122  0.04388943  0.54179938  1
  C  C591  1  0.78375812  0.18177514  0.51704280  1
  H  H592  1  0.86468841  0.08110385  0.27000531  1
  C  C593  1  0.93183703  0.19136121  0.46782535  1
  C  C594  1  0.88018652  0.18815568  0.48464924  1
  H  H595  1  0.87697622  0.07959888  0.92696912  1
  C  C596  1  0.90959843  0.08058323  0.98845192  1
  O  O597  1  0.95541601  0.20181699  0.81918440  1
  O  O598  1  0.94377234  0.12251373  0.37548450  1
  O  O599  1  0.89880525  0.08939117  0.11906128  1
  C  C600  1  0.89815296  0.01157393  0.75135988  1
  H  H601  1  0.95879509  0.06504604  0.26322722  1
  H  H602  1  0.84339006  0.06270055  0.49494765  1
  H  H603  1  0.87502509  0.22954205  0.66568948  1
  C  C604  1  0.98153520  0.00214064  0.69027148  1
  H  H605  1  0.82936556  0.02690115  0.82319934  1
  H  H606  1  0.93469174  0.10006895  0.93616974  1
  H  H607  1  0.99204771  0.10887715  0.22278262  1
  H  H608  1  0.92118684  0.04642375  0.99178058  1
  C  C609  1  0.95035416  0.23030289  0.89763445  1
  H  H610  1  0.92001667  0.24896221  0.56194393  1
  C  C611  1  0.75149648  0.13872285  0.82074635  1
  O  O612  1  0.91782719  0.23380661  0.97550775  1
  H  H613  1  0.82057238  0.01877744  0.39468356  1
  C  C614  1  0.85464089  0.01869236  0.17051011  1
  H  H615  1  0.77642505  0.38619907  0.07529291  1
  C  C616  1  0.96840660  0.30357110  0.95299468  1
  H  H617  1  0.80092813  0.46258101  0.17939191  1
  C  C618  1  0.75382766  0.28804235  0.95005837  1
  C  C619  1  0.98272381  0.31596544  0.54110861  1
  C  C620  1  0.78734483  0.40698877  0.81081568  1
  H  H621  1  0.94555914  0.30768850  0.55407008  1
  C  C622  1  0.98735963  0.38557033  0.23572057  1
  C  C623  1  0.95245642  0.41744901  0.21857166  1
  H  H624  1  0.99497962  0.47296764  0.27745768  1
  C  C625  1  0.96205638  0.46038021  0.24264644  1
  C  C626  1  0.86732656  0.48922993  0.66251760  1
  C  C627  1  0.95774677  0.38599571  0.59765717  1
  C  C628  1  0.87524703  0.43747522  0.14698946  1
  C  C629  1  0.94448228  0.39829375  0.72786081  1
  C  C630  1  0.98392541  0.26759660  0.88649833  1
  H  H631  1  0.90673510  0.44740580  0.84969632  1
  C  C632  1  0.91445016  0.43040847  0.74847726  1
  C  C633  1  0.90790276  0.40643626  0.18083182  1
  C  C634  1  0.77647113  0.36388723  0.86377795  1
  C  C635  1  0.93111387  0.40393342  0.49747055  1
  C  C636  1  0.89270983  0.45180251  0.63909652  1
  O  O637  1  0.79390145  0.43737244  0.90003726  1
  H  H638  1  0.93454900  0.30363697  0.00535390  1
  H  H639  1  0.96599034  0.38482943  0.80804047  1
  C  C640  1  0.76373097  0.31806295  0.05047364  1
  C  C641  1  0.90251155  0.43866458  0.51202512  1
  H  H642  1  0.89674067  0.37274520  0.16468873  1
  H  H643  1  0.84269175  0.42828588  0.09478400  1
  C  C644  1  0.93012641  0.49065973  0.21420275  1
  C  C645  1  0.77297556  0.35821770  0.00289058  1
  O  O646  1  0.79285334  0.41426931  0.69439702  1
  H  H647  1  0.88960056  0.45509404  0.42628981  1
  C  C648  1  0.80456981  0.49175082  0.12210010  1
  C  C649  1  0.88530532  0.48018222  0.16090332  1
  O  O650  1  0.97116243  0.34970131  0.22676286  1
  H  H651  1  0.94192969  0.39302107  0.39698746  1
  O  O652  1  0.85472458  0.49982636  0.77719240  1
  H  H653  1  0.98643776  0.36729564  0.00452773  1
  C  C654  1  0.99629093  0.33840610  0.95026863  1
  H  H655  1  0.96708575  0.47614540  0.94055299  1
  Cu  Cu656  1  0.80316455  0.49300236  0.88341654  1
  C  C657  1  0.99795373  0.35654428  0.56466792  1
  H  H658  1  0.75992916  0.30979125  0.15439079  1
  H  H659  1  0.99505351  0.44409204  0.52499030  1
  H  H660  1  0.77970450  0.33979927  0.65628483  1
  C  C661  1  0.75944360  0.29499568  0.81021174  1
  C  C662  1  0.77140366  0.33476910  0.76419594  1
  C  C663  1  0.81847068  0.68897600  0.99274392  1
  O  O664  1  0.85570959  0.51021845  0.55659125  1
  C  C665  1  0.81709834  0.56846112  0.02251345  1
  C  C666  1  0.91398374  0.60116728  0.01515875  1
  H  H667  1  0.80340228  0.64532552  0.14923870  1
  C  C668  1  0.82592087  0.61692293  0.81763767  1
  C  C669  1  0.81531276  0.64833119  0.04397932  1
  O  O670  1  0.75714422  0.50826993  0.77005625  1
  H  H671  1  0.91285866  0.60041816  0.90460778  1
  H  H672  1  0.81330728  0.71660265  0.05460100  1
  Cu  Cu673  1  0.79561414  0.51250888  0.48736047  1
  C  C674  1  0.77174291  0.55341735  0.03360480  1
  C  C675  1  0.81717189  0.61222690  0.95881426  1
  O  O676  1  0.90295755  0.56117618  0.06620697  1
  C  C677  1  0.83611371  0.73624919  0.82196348  1
  C  C678  1  0.85930372  0.54858527  0.06162240  1
  C  C679  1  0.82967975  0.69182272  0.85588106  1
  H  H680  1  0.83051702  0.58848122  0.75557389  1
  H  H681  1  0.95090562  0.60806660  0.04217959  1
  H  H682  1  0.84407134  0.65893731  0.66622982  1
  H  H683  1  0.93809156  0.52510839  0.22167315  1
  C  C684  1  0.83417190  0.65672200  0.77168723  1
  O  O685  1  0.75897487  0.71340147  0.32521037  1
  O  O686  1  0.77837937  0.55121159  0.61683600  1
  H  H687  1  0.88974499  0.62755194  0.04378843  1
  C  C688  1  0.76445609  0.51454434  0.09305269  1
  O  O689  1  0.85155668  0.74714096  0.70017569  1
  C  C690  1  0.84812830  0.50844253  0.11136088  1
  C  C691  1  0.79627187  0.74384998  0.30501138  1
  H  H692  1  0.82993833  0.72696512  0.31480954  1
  H  H693  1  0.75104783  0.57605862  0.27952956  1
  H  H694  1  0.76077248  0.90639583  0.30173274  1
  Cu  Cu695  1  0.88499099  0.85419563  0.62895896  1
  Cu  Cu696  1  0.90037690  0.78065637  0.68368257  1
  C  C697  1  0.80941828  0.91029293  0.09023309  1
  O  O698  1  0.82426260  0.84727908  0.59924622  1
  O  O699  1  0.82783163  0.76361555  0.89850010  1
  O  O700  1  0.96013308  0.80074545  0.69638729  1
  H  H701  1  0.89804619  0.97918417  0.79777078  1
  H  H702  1  0.77215141  0.79060317  0.63274814  1
  H  H703  1  0.79920791  0.83392419  0.95602537  1
  O  O704  1  0.94420941  0.86627833  0.65468921  1
  C  C705  1  0.79108540  0.87442638  0.59210877  1
  O  O706  1  0.79727064  0.90981240  0.56050209  1
  C  C707  1  0.97452009  0.83803256  0.67095543  1
  C  C708  1  0.78182144  0.87407153  0.13147630  1
  O  O709  1  0.82880276  0.90830128  0.98900687  1
  C  C710  1  0.77933649  0.83691525  0.05493911  1
  O  O711  1  0.81437115  0.94912130  0.18366194  1
  C  C712  1  0.84164318  0.97798046  0.14129355  1
  H  H713  1  0.86778618  0.96347073  0.06870294  1
  C  C714  1  0.75511385  0.80169391  0.10217254  1
  C  C715  1  0.75652467  0.87701264  0.25403310  1
  H  H716  1  0.79679403  0.76345483  0.21724587  1
  O  O717  1  0.98191774  0.96972873  0.75064772  1
  H  H718  1  0.75574823  0.77332205  0.04137120  1
  H  H719  1  0.79301528  0.76653251  0.39008994  1
