# generated using pymatgen
data_CuH12C21O5
_symmetry_space_group_name_H-M   'P 1'
_cell_length_a   33.94250341
_cell_length_b   30.04819534
_cell_length_c   8.87025638
_cell_angle_alpha   90.00000000
_cell_angle_beta   90.00000000
_cell_angle_gamma   90.00000000
_symmetry_Int_Tables_number   1
_chemical_formula_structural   CuH12C21O5
_chemical_formula_sum   'Cu18 H216 C378 O90'
_cell_volume   9046.87180915
_cell_formula_units_Z   18
loop_
 _symmetry_equiv_pos_site_id
 _symmetry_equiv_pos_as_xyz
  1  'x, y, z'
loop_
 _atom_site_type_symbol
 _atom_site_label
 _atom_site_symmetry_multiplicity
 _atom_site_fract_x
 _atom_site_fract_y
 _atom_site_fract_z
 _atom_site_occupancy
  Cu  Cu0  1  0.18299567  0.08437610  0.44393553  1
  O  O1  1  0.16040127  0.03081261  0.44667622  1
  H  H2  1  0.04069219  0.15581399  0.23443983  1
  O  O3  1  0.21066027  0.13496145  0.39951954  1
  C  C4  1  0.15164166  0.01168984  0.32718900  1
  H  H5  1  0.02928371  0.04386600  0.28456722  1
  C  C6  1  0.14058107  0.02347816  0.18149421  1
  C  C7  1  0.05818924  0.05741453  0.25318114  1
  C  C8  1  0.04036095  0.17510599  0.12623268  1
  H  H9  1  0.04733030  0.22286384  0.37558213  1
  O  O10  1  0.06087672  0.08306664  0.15191901  1
  H  H11  1  0.08199288  0.04554168  0.32803039  1
  H  H12  1  0.21105334  0.20311796  0.23661813  1
  C  C13  1  0.01274004  0.20723247  0.09098503  1
  C  C14  1  0.23445802  0.21995280  0.29549726  1
  C  C15  1  0.04714202  0.19439221  0.45144252  1
  H  H16  1  0.11025254  0.18287703  0.44530355  1
  C  C17  1  0.13760891  0.07282191  0.13459294  1
  C  C18  1  0.10294081  0.09746823  0.11839234  1
  C  C19  1  0.10890782  0.13738559  0.05140699  1
  C  C20  1  0.17617167  0.08825849  0.09539861  1
  H  H21  1  0.20213371  0.07066714  0.11594790  1
  C  C22  1  0.17913166  0.13146967  0.02565446  1
  C  C23  1  0.08070170  0.17133184  0.48451024  1
  C  C24  1  0.23648164  0.15363433  0.47222308  1
  C  C25  1  0.01057519  0.17462330  0.48604076  1
  C  C26  1  0.07193326  0.16596768  0.02518715  1
  O  O27  1  0.14956597  0.24112628  0.39335171  1
  C  C28  1  0.14434280  0.15601035  0.00435612  1
  C  C29  1  0.24705144  0.48812982  0.28616524  1
  H  H30  1  0.10554007  0.48924287  0.16771939  1
  C  C31  1  0.06688082  0.39179757  0.07041317  1
  C  C32  1  0.02687224  0.37652107  0.04177933  1
  H  H33  1  0.19851381  0.39136577  0.24431425  1
  C  C34  1  0.24815103  0.26142559  0.24362002  1
  C  C35  1  0.08560342  0.38551039  0.21088879  1
  H  H36  1  0.06843828  0.37126331  0.30323913  1
  O  O37  1  0.01149952  0.35691238  0.15544043  1
  C  C38  1  0.12233111  0.25469760  0.35456226  1
  C  C39  1  0.17487919  0.45580370  0.19153327  1
  C  C40  1  0.13719844  0.43305511  0.13492154  1
  H  H41  1  0.13133663  0.40443140  0.36034816  1
  H  H42  1  0.03523255  0.44888784  0.46531323  1
  C  C43  1  0.24117778  0.44252732  0.29946175  1
  C  C44  1  0.20404610  0.42776945  0.25204417  1
  H  H45  1  0.23271025  0.27846909  0.15609311  1
  C  C46  1  0.11939840  0.40767722  0.25024402  1
  H  H47  1  0.23153295  0.34792054  0.34884159  1
  C  C48  1  0.07271506  0.18512273  0.88015392  1
  H  H49  1  0.14353331  0.18904149  0.95643582  1
  H  H50  1  0.09372858  0.17482094  0.79808826  1
  O  O51  1  0.21085052  0.03578208  0.75964746  1
  Cu  Cu52  1  0.16120358  0.05720476  0.74321474  1
  C  C53  1  0.04115907  0.21448888  0.84938469  1
  H  H54  1  0.04082205  0.08149942  0.68746058  1
  O  O55  1  0.10985722  0.07681550  0.69379376  1
  C  C56  1  0.04094232  0.11312506  0.62329022  1
  H  H57  1  0.01206245  0.13612454  0.88540523  1
  C  C58  1  0.01126358  0.22726998  0.94604651  1
  C  C59  1  0.00759341  0.13528380  0.57638492  1
  C  C60  1  0.07611979  0.13180917  0.57244798  1
  C  C61  1  0.11294720  0.10657903  0.59476201  1
  H  H62  1  0.04090180  0.23163133  0.73758402  1
  O  O63  1  0.14444980  0.11809501  0.53187610  1
  Cu  Cu64  1  0.22815555  0.08907579  0.67275349  1
  H  H65  1  0.12621638  0.00680187  0.94761490  1
  H  H66  1  0.24361241  0.07938637  0.97114609  1
  C  C67  1  0.21993350  0.14905502  0.97543119  1
  C  C68  1  0.24860802  0.11583159  0.94508597  1
  O  O69  1  0.24602181  0.14028577  0.60164442  1
  C  C70  1  0.22314278  0.19462730  0.95674134  1
  H  H71  1  0.20041954  0.21733411  0.98942460  1
  C  C72  1  0.24934910  0.28189265  0.72791130  1
  C  C73  1  0.09176516  0.42500004  0.55838899  1
  H  H74  1  0.11256149  0.32981084  0.75670255  1
  C  C75  1  0.05403820  0.35117702  0.67312100  1
  Cu  Cu76  1  0.22345363  0.45141868  0.63224887  1
  H  H77  1  0.24383186  0.34190957  0.58538477  1
  O  O78  1  0.00691369  0.37985776  0.92403907  1
  H  H79  1  0.23539654  0.25981060  0.64709628  1
  C  C80  1  0.08683332  0.41654379  0.95759221  1
  H  H81  1  0.13992096  0.45365961  0.89783646  1
  C  C82  1  0.12246455  0.43664466  0.98535318  1
  C  C83  1  0.09418130  0.35368930  0.69611329  1
  C  C84  1  0.03279513  0.38220056  0.58048740  1
  H  H85  1  0.03888128  0.32040009  0.71528234  1
  C  C86  1  0.15618869  0.39801322  0.66127907  1
  C  C87  1  0.11252379  0.39202836  0.63632445  1
  O  O88  1  0.17471914  0.37029895  0.72252321  1
  H  H89  1  0.07737472  0.41780435  0.83938272  1
  O  O90  1  0.17179593  0.43711755  0.61738665  1
  C  C91  1  0.05157733  0.42288711  0.52982613  1
  H  H92  1  0.00637389  0.30822975  0.51230655  1
  H  H93  1  0.10814997  0.45387695  0.51626542  1
  C  C94  1  0.15501771  0.66190281  0.20315152  1
  C  C95  1  0.17918119  0.69595888  0.14995509  1
  H  H96  1  0.14360461  0.63585220  0.13212701  1
  C  C97  1  0.21712119  0.51523320  0.22857582  1
  H  H98  1  0.15941949  0.57474628  0.34759051  1
  C  C99  1  0.14325983  0.66470024  0.36142544  1
  H  H100  1  0.08870279  0.70279122  0.31217715  1
  O  O101  1  0.15246194  0.53119621  0.10523519  1
  C  C102  1  0.23138720  0.56328595  0.23163891  1
  C  C103  1  0.11803183  0.51978267  0.11194671  1
  C  C104  1  0.18362194  0.72988967  0.40622089  1
  C  C105  1  0.19381125  0.72935318  0.24991951  1
  H  H106  1  0.22957803  0.57787194  0.47627669  1
  C  C107  1  0.13390372  0.58551072  0.41606269  1
  C  C108  1  0.23633067  0.59182844  0.35985130  1
  C  C109  1  0.18067133  0.50158532  0.17331493  1
  H  H110  1  0.18627238  0.69686751  0.02816800  1
  O  O111  1  0.01678054  0.50308568  0.08216822  1
  C  C112  1  0.11647854  0.63073611  0.43470096  1
  C  C113  1  0.11043113  0.56012996  0.49598234  1
  H  H114  1  0.00798550  0.54091984  0.38073367  1
  C  C115  1  0.06874692  0.71301651  0.40204380  1
  C  C116  1  0.15737168  0.69934562  0.46115647  1
  C  C117  1  0.24295386  0.57963298  0.08930970  1
  H  H118  1  0.08895693  0.53851569  0.08524325  1
  H  H119  1  0.05269006  0.74434957  0.39981211  1
  C  C120  1  0.13468967  0.99261812  0.06252938  1
  O  O121  1  0.23755885  0.79016146  0.28342976  1
  H  H122  1  0.19576981  0.75634738  0.47347055  1
  C  C123  1  0.22231600  0.76223761  0.19567200  1
  H  H124  1  0.15784054  0.97515986  0.34803378  1
  O  O125  1  0.23263942  0.76157051  0.05797910  1
  H  H126  1  0.17970891  0.89681225  0.06051628  1
  O  O127  1  0.13327002  0.95187221  0.04919124  1
  C  C128  1  0.02517355  0.61653693  0.67205709  1
  C  C129  1  0.20592276  0.60691855  0.70219330  1
  C  C130  1  0.06273089  0.60775893  0.58941959  1
  H  H131  1  0.14986950  0.70089500  0.58195578  1
  H  H132  1  0.06174168  0.53382322  0.63336943  1
  C  C133  1  0.21000033  0.65279901  0.71780830  1
  H  H134  1  0.03588323  0.55438376  0.78002993  1
  H  H135  1  0.18115695  0.67206245  0.73069932  1
  H  H136  1  0.17721956  0.59060403  0.70146673  1
  O  O137  1  0.18020896  0.73927538  0.76616083  1
  O  O138  1  0.06519271  0.68940168  0.51199328  1
  C  C139  1  0.07691056  0.56146586  0.57571730  1
  O  O140  1  0.22195798  0.50923154  0.69492872  1
  C  C141  1  0.01584774  0.58285337  0.77155507  1
  H  H142  1  0.23481792  0.56137497  0.99005061  1
  C  C143  1  0.08127560  0.64133192  0.50851326  1
  C  C144  1  0.24940525  0.72676372  0.68756208  1
  C  C145  1  0.24538817  0.67834957  0.70590774  1
  C  C146  1  0.24259942  0.58464480  0.69153386  1
  H  H147  1  0.00115292  0.67637069  0.55476285  1
  H  H148  1  0.12358728  0.75025584  0.81050377  1
  C  C149  1  0.21790437  0.75571331  0.72556734  1
  C  C150  1  0.22528117  0.99828632  0.70247539  1
  C  C151  1  0.15344876  0.76419956  0.79964944  1
  C  C152  1  0.24173017  0.96814785  0.63628946  1
  H  H153  1  0.17188814  0.84006963  0.52336090  1
  H  H154  1  0.13172248  0.90472917  0.60032138  1
  H  H155  1  0.15583455  0.80057481  0.80363912  1
  C  C156  1  0.15153738  0.88731621  0.67981522  1
  C  C157  1  0.15268729  0.89831172  0.83817952  1
  C  C158  1  0.12634645  0.93340687  0.88198732  1
  O  O159  1  0.10427491  0.95117620  0.79754681  1
  C  C160  1  0.17589786  0.85297062  0.63831735  1
  C  C161  1  0.20810419  0.85521843  0.89562744  1
  C  C162  1  0.20485142  0.83908134  0.74304337  1
  C  C163  1  0.23136766  0.79882308  0.71186940  1
  C  C164  1  0.18011012  0.88353801  0.94974593  1
  H  H165  1  0.22993651  0.84091127  0.97528531  1
  C  C166  1  0.33638247  0.12609963  0.21765601  1
  C  C167  1  0.30528699  0.09966315  0.26360947  1
  H  H168  1  0.27715626  0.11531839  0.30127437  1
  O  O169  1  0.46206869  0.10375469  0.18290351  1
  C  C170  1  0.31412683  0.05329721  0.27458973  1
  C  C171  1  0.38295181  0.06386241  0.17713765  1
  C  C172  1  0.35166390  0.03714934  0.22756428  1
  C  C173  1  0.37514771  0.11113757  0.17008104  1
  H  H174  1  0.33194778  0.16302884  0.22474076  1
  H  H175  1  0.41143506  0.04967076  0.14783355  1
  O  O176  1  0.25143943  0.03181768  0.37950507  1
  C  C177  1  0.25237625  0.19695182  0.41135656  1
  C  C178  1  0.44327038  0.14036493  0.08376876  1
  C  C179  1  0.28301236  0.02244162  0.33476877  1
  H  H180  1  0.30695482  0.05658990  0.00409954  1
  C  C181  1  0.40229125  0.14197237  0.08153736  1
  H  H182  1  0.35462916  0.00013909  0.21775844  1
  C  C183  1  0.46355826  0.17258642  0.00696531  1
  C  C184  1  0.49637888  0.09338975  0.17545741  1
  C  C185  1  0.28676766  0.21472102  0.47734458  1
  O  O186  1  0.49820045  0.49221754  0.10246545  1
  H  H187  1  0.31048665  0.35177109  0.01366125  1
  H  H188  1  0.36351938  0.44244746  0.10471973  1
  C  C189  1  0.33333748  0.34007957  0.31562573  1
  H  H190  1  0.30817354  0.26747765  0.04506850  1
  C  C191  1  0.42267299  0.46153262  0.16165447  1
  H  H192  1  0.39694498  0.34067564  0.14576915  1
  C  C193  1  0.49263738  0.47443472  0.23375819  1
  C  C194  1  0.39421537  0.30812125  0.21105782  1
  H  H195  1  0.47410124  0.42364095  0.46475487  1
  C  C196  1  0.34244745  0.38512293  0.33367479  1
  C  C197  1  0.27150783  0.40615962  0.33341339  1
  C  C198  1  0.26052233  0.36074868  0.34053073  1
  C  C199  1  0.38707221  0.43967253  0.18816292  1
  O  O200  1  0.36727618  0.30382143  0.29594360  1
  C  C201  1  0.29338028  0.33136806  0.31000877  1
  C  C202  1  0.28090653  0.28119296  0.31608275  1
  C  C203  1  0.38201704  0.40903141  0.30934618  1
  C  C204  1  0.41428409  0.40049784  0.41019733  1
  C  C205  1  0.31270075  0.41766517  0.32701141  1
  C  C206  1  0.45328138  0.45014221  0.25892140  1
  C  C207  1  0.44853037  0.42424362  0.38814042  1
  H  H208  1  0.31906021  0.45400965  0.30622118  1
  H  H209  1  0.41494349  0.28181304  0.18168903  1
  C  C210  1  0.29929191  0.25791097  0.44032581  1
  H  H211  1  0.42776413  0.48576971  0.07238901  1
  C  C212  1  0.28713590  0.17506368  0.86001225  1
  C  C213  1  0.28615713  0.12656151  0.88282689  1
  C  C214  1  0.31476847  0.09425987  0.81017736  1
  C  C215  1  0.32159975  0.05566293  0.89669663  1
  C  C216  1  0.36163936  0.02881858  0.70527226  1
  C  C217  1  0.33230522  0.09919816  0.66392400  1
  C  C218  1  0.34178006  0.01890158  0.84303788  1
  C  C219  1  0.44705129  0.21073577  0.92084578  1
  C  C220  1  0.40775847  0.20488671  0.93823437  1
  H  H221  1  0.46403542  0.23948389  0.86942346  1
  C  C222  1  0.35833711  0.06780072  0.61316653  1
  C  C223  1  0.25904592  0.21221601  0.88891328  1
  H  H224  1  0.32510021  0.12947672  0.59401126  1
  Cu  Cu225  1  0.45546218  0.02874398  0.51271289  1
  O  O226  1  0.40710059  0.00286609  0.52491194  1
  H  H227  1  0.37086986  0.06930694  0.50116667  1
  H  H228  1  0.30010993  0.19917152  0.57548171  1
  H  H229  1  0.34917154  0.18022212  0.97064532  1
  C  C230  1  0.38127830  0.17784766  0.99664788  1
  O  O231  1  0.39099974  0.33021028  0.64946310  1
  Cu  Cu232  1  0.31062925  0.48123853  0.81448350  1
  C  C233  1  0.26788727  0.26170787  0.85505383  1
  C  C234  1  0.35817683  0.32868234  0.69050975  1
  H  H235  1  0.32342035  0.27284281  0.50890279  1
  C  C236  1  0.25438091  0.32634898  0.69289122  1
  H  H237  1  0.34490509  0.30627636  0.77971704  1
  C  C238  1  0.28166287  0.39725635  0.76691632  1
  C  C239  1  0.27677416  0.34954105  0.80026389  1
  O  O240  1  0.30501280  0.42261435  0.84572877  1
  O  O241  1  0.26495977  0.41276375  0.65333467  1
  H  H242  1  0.33669144  0.35336637  0.62857150  1
  C  C243  1  0.29404191  0.28412447  0.95371426  1
  H  H244  1  0.41006460  0.37581913  0.50703386  1
  C  C245  1  0.29644757  0.33043785  0.92877230  1
  C  C246  1  0.45180058  0.66643324  0.16530362  1
  O  O247  1  0.29209019  0.71441742  0.30754597  1
  C  C248  1  0.43309061  0.65842534  0.30443633  1
  C  C249  1  0.28825621  0.68975844  0.19029820  1
  C  C250  1  0.47312124  0.63276867  0.08018524  1
  C  C251  1  0.41574605  0.69487497  0.37592814  1
  H  H252  1  0.43240786  0.62470014  0.35031111  1
  C  C253  1  0.44683081  0.70999111  0.10178098  1
  C  C254  1  0.41322321  0.73877527  0.32823746  1
  C  C255  1  0.26927566  0.64554313  0.20830941  1
  O  O256  1  0.47717571  0.59313165  0.13408757  1
  H  H257  1  0.25625004  0.65490471  0.44793762  1
  O  O258  1  0.29959439  0.70194771  0.06541490  1
  C  C259  1  0.26469955  0.61889474  0.07793119  1
  H  H260  1  0.27723315  0.50223526  0.30594925  1
  C  C261  1  0.25380598  0.63465520  0.35198959  1
  H  H262  1  0.34839481  0.73460029  0.47406912  1
  C  C263  1  0.43005727  0.74384629  0.17974804  1
  H  H264  1  0.40328784  0.68779977  0.48379532  1
  C  C265  1  0.35850648  0.76865668  0.48042094  1
  C  C266  1  0.28099369  0.94044420  0.41198723  1
  H  H267  1  0.29335105  0.91022125  0.35329998  1
  C  C268  1  0.48097099  0.79466192  0.37658565  1
  C  C269  1  0.36467029  0.82826540  0.01493399  1
  O  O270  1  0.45897898  0.82522758  0.39161722  1
  H  H271  1  0.47099252  0.75992085  0.38031551  1
  C  C272  1  0.32522764  0.82173280  0.07583888  1
  C  C273  1  0.41536813  0.81862005  0.44086231  1
  H  H274  1  0.38549495  0.85593612  0.21969262  1
  O  O275  1  0.31605372  0.82638270  0.21582361  1
  C  C276  1  0.39702626  0.77808919  0.42318423  1
  Cu  Cu277  1  0.29124675  0.78051944  0.32228419  1
  C  C278  1  0.39475236  0.84788154  0.10231750  1
  C  C279  1  0.43317552  0.85228884  0.04730867  1
  O  O280  1  0.29468834  0.97201859  0.32514170  1
  H  H281  1  0.45690273  0.86352254  0.12495111  1
  H  H282  1  0.42743822  0.77690961  0.12802291  1
  C  C283  1  0.38750970  0.58703424  0.80028213  1
  C  C284  1  0.42252906  0.65489146  0.77474561  1
  C  C285  1  0.44352774  0.63777739  0.65178193  1
  H  H286  1  0.45800382  0.71893443  0.67932124  1
  C  C287  1  0.40748845  0.56716375  0.67821246  1
  H  H288  1  0.30973206  0.66867959  0.67135221  1
  C  C289  1  0.27925211  0.60736051  0.68544645  1
  H  H290  1  0.30846119  0.58818733  0.67838292  1
  C  C291  1  0.28097053  0.65293333  0.68194863  1
  C  C292  1  0.48563545  0.70607572  0.63998192  1
  C  C293  1  0.48224497  0.66070505  0.60838466  1
  H  H294  1  0.43174120  0.68672728  0.83802649  1
  C  C295  1  0.39461867  0.63018363  0.84939910  1
  C  C296  1  0.35942572  0.55716607  0.88604046  1
  C  C297  1  0.28708609  0.74118157  0.63772032  1
  H  H298  1  0.40000370  0.53271441  0.63890104  1
  H  H299  1  0.27862997  0.62915756  0.96931956  1
  H  H300  1  0.30853431  0.71455400  0.60397313  1
  H  H301  1  0.37871959  0.64456372  0.95137606  1
  O  O302  1  0.28534695  0.52173202  0.68700539  1
  C  C303  1  0.43270852  0.59408192  0.59780628  1
  O  O304  1  0.36016409  0.51516584  0.84554460  1
  O  O305  1  0.34193506  0.57259595  0.99023168  1
  O  O306  1  0.48956297  0.64304986  0.95959333  1
  C  C307  1  0.25008583  0.53678986  0.69003985  1
  H  H308  1  0.45812896  0.71345073  0.98941751  1
  H  H309  1  0.44835059  0.57877108  0.50119211  1
  O  O310  1  0.30108993  0.80946341  0.97623974  1
  C  C311  1  0.42162652  0.92170401  0.66653522  1
  C  C312  1  0.40955850  0.81957533  0.81395672  1
  C  C313  1  0.26779468  0.81696893  0.66295004  1
  O  O314  1  0.39461757  0.95961119  0.72153260  1
  H  H315  1  0.34632704  0.98591220  0.90190282  1
  C  C316  1  0.25894264  0.93394070  0.54447879  1
  C  C317  1  0.38901821  0.99579648  0.64494572  1
  C  C318  1  0.48571430  0.79612429  0.75112298  1
  C  C319  1  0.41301935  0.89678438  0.52355252  1
  C  C320  1  0.44373232  0.91591100  0.51696002  1
  C  C321  1  0.39112967  0.85124369  0.50486199  1
  H  H322  1  0.47306687  0.89781562  0.50529262  1
  H  H323  1  0.34814696  0.80049187  0.79609944  1
  C  C324  1  0.44104121  0.83824067  0.89695406  1
  Cu  Cu325  1  0.28143641  0.75165702  0.96420510  1
  H  H326  1  0.27539614  0.85264443  0.67151724  1
  C  C327  1  0.29655310  0.78520603  0.61613534  1
  C  C328  1  0.33639642  0.80022295  0.55210894  1
  C  C329  1  0.35177741  0.84502784  0.55696831  1
  H  H330  1  0.42545494  0.89865637  0.76473013  1
  C  C331  1  0.48364068  0.83608970  0.82921178  1
  C  C332  1  0.37181656  0.81362296  0.86730557  1
  H  H333  1  0.45867399  0.77424028  0.74786110  1
  H  H334  1  0.33450274  0.87360877  0.58181768  1
  H  H335  1  0.41354730  0.80726907  0.69327260  1
  H  H336  1  0.25224330  0.89974584  0.57800861  1
  C  C337  1  0.56616655  0.19163418  0.18876162  1
  C  C338  1  0.52665545  0.18556259  0.16645039  1
  H  H339  1  0.57837602  0.19464116  0.30053544  1
  H  H340  1  0.64746920  0.11362539  0.10309334  1
  C  C341  1  0.64961920  0.07861742  0.08411627  1
  C  C342  1  0.65411371  0.04602080  0.19398903  1
  C  C343  1  0.65498139  0.05373997  0.34985819  1
  H  H344  1  0.60874005  0.14327334  0.33459147  1
  O  O345  1  0.64845675  0.19899415  0.20110394  1
  H  H346  1  0.54771024  0.09743776  0.37836822  1
  C  C347  1  0.63337040  0.19370739  0.07217140  1
  H  H348  1  0.65795078  0.08595707  0.39946409  1
  H  H349  1  0.51075445  0.07042015  0.25317791  1
  C  C350  1  0.59124935  0.19145700  0.05818451  1
  H  H351  1  0.50606532  0.18593622  0.26055926  1
  H  H352  1  0.51357740  0.10354523  0.07617360  1
  Cu  Cu353  1  0.69384956  0.23400407  0.21147569  1
  C  C354  1  0.60377803  0.12931960  0.44078242  1
  C  C355  1  0.57036859  0.10228900  0.46494111  1
  C  C356  1  0.65901555  0.01364805  0.43579485  1
  C  C357  1  0.50811786  0.17798081  0.02300880  1
  H  H358  1  0.65951427  0.01289821  0.15022789  1
  H  H359  1  0.59501337  0.00109020  0.37887654  1
  O  O360  1  0.74214548  0.15285289  0.01254277  1
  O  O361  1  0.71085555  0.44410159  0.02741157  1
  C  C362  1  0.65035540  0.31433500  0.44421009  1
  H  H363  1  0.66664214  0.44371232  0.19004743  1
  O  O364  1  0.51833637  0.47515011  0.32346655  1
  C  C365  1  0.64737516  0.36119048  0.43587075  1
  H  H366  1  0.62559206  0.37549748  0.35838652  1
  O  O367  1  0.64864449  0.45832004  0.44286801  1
  C  C368  1  0.68514140  0.46206123  0.10089430  1
  H  H369  1  0.62809974  0.29543635  0.38353744  1
  O  O370  1  0.73807130  0.26757426  0.18470875  1
  H  H371  1  0.68106028  0.49842965  0.10720379  1
  H  H372  1  0.58360410  0.07611404  0.83885843  1
  C  C373  1  0.58890020  0.09197072  0.72932358  1
  C  C374  1  0.62070926  0.11915603  0.70854424  1
  H  H375  1  0.63909696  0.12951339  0.80970281  1
  C  C376  1  0.65775635  0.02657396  0.84540361  1
  H  H377  1  0.53802825  0.04747834  0.82873293  1
  H  H378  1  0.65140486  0.05637887  0.62394542  1
  C  C379  1  0.56234072  0.08320352  0.60711670  1
  C  C380  1  0.52679800  0.05608465  0.63274848  1
  H  H381  1  0.51964930  0.17869943  0.77813917  1
  H  H382  1  0.58923644  0.18749842  0.81655292  1
  C  C383  1  0.53265870  0.18245426  0.89268493  1
  C  C384  1  0.57225146  0.18598165  0.91727689  1
  C  C385  1  0.62936605  0.13676537  0.56578570  1
  C  C386  1  0.66308089  0.17065865  0.56798695  1
  O  O387  1  0.51492145  0.03686060  0.75642597  1
  H  H388  1  0.72091668  0.10095647  0.86589370  1
  C  C389  1  0.70166172  0.15443763  0.56432784  1
  H  H390  1  0.70746108  0.11915468  0.55656739  1
  C  C391  1  0.73290193  0.18511439  0.57059600  1
  C  C392  1  0.65730018  0.01994387  0.59027869  1
  C  C393  1  0.73702525  0.02741215  0.53612475  1
  C  C394  1  0.64859376  0.21558559  0.57105145  1
  O  O395  1  0.60988192  0.22782086  0.59445188  1
  C  C396  1  0.72257488  0.23101608  0.55856398  1
  C  C397  1  0.65327847  0.05264972  0.94913218  1
  C  C398  1  0.68215389  0.24246938  0.55725298  1
  Cu  Cu399  1  0.70954483  0.20674637  0.95406918  1
  O  O400  1  0.65605095  0.18631867  0.95659274  1
  O  O401  1  0.50311478  0.05530777  0.51944058  1
  C  C402  1  0.73904699  0.08672695  0.76840368  1
  C  C403  1  0.73604549  0.05945234  0.66560682  1
  O  O404  1  0.66260287  0.00065838  0.71862651  1
  O  O405  1  0.69691189  0.45928434  0.60839665  1
  C  C406  1  0.67189513  0.38840640  0.52762711  1
  H  H407  1  0.71685457  0.39078066  0.69246826  1
  C  C408  1  0.74266908  0.47291955  0.94956240  1
  H  H409  1  0.71612624  0.30673225  0.73392463  1
  C  C410  1  0.69787659  0.36883997  0.63084769  1
  H  H411  1  0.56532368  0.27086908  0.62470403  1
  C  C412  1  0.59822103  0.26546799  0.61232445  1
  H  H413  1  0.61719359  0.29424507  0.63848023  1
  H  H414  1  0.66392970  0.47598760  0.83059663  1
  C  C415  1  0.69880954  0.32226626  0.64964369  1
  C  C416  1  0.67714718  0.29490877  0.54909002  1
  C  C417  1  0.67109403  0.43773000  0.51729656  1
  H  H418  1  0.74330396  0.25681061  0.52591917  1
  H  H419  1  0.58609606  0.66032416  0.23276653  1
  H  H420  1  0.64788042  0.61637757  0.17277024  1
  O  O421  1  0.71004397  0.57656765  0.27214415  1
  C  C422  1  0.64063658  0.62504823  0.29329423  1
  C  C423  1  0.60561603  0.64742143  0.32277625  1
  C  C424  1  0.70053902  0.58756447  0.40346974  1
  H  H425  1  0.74646897  0.68505290  0.16531445  1
  C  C426  1  0.66303498  0.61115818  0.42201503  1
  O  O427  1  0.55310074  0.71351249  0.08074937  1
  H  H428  1  0.61121796  0.74369315  0.19598654  1
  C  C429  1  0.59224495  0.65258098  0.47535242  1
  Cu  Cu430  1  0.51252576  0.55064645  0.05780598  1
  C  C431  1  0.67499200  0.87753966  0.28168214  1
  C  C432  1  0.53856927  0.75448178  0.09325700  1
  H  H433  1  0.72719565  0.97206837  0.36432032  1
  H  H434  1  0.68102812  0.84380685  0.24962691  1
  H  H435  1  0.54079993  0.95301164  0.04306456  1
  H  H436  1  0.51223913  0.80330235  0.36421413  1
  C  C437  1  0.59192572  0.96623436  0.34118784  1
  C  C438  1  0.62371961  0.81264746  0.27455289  1
  O  O439  1  0.50826388  0.76668309  0.03473091  1
  C  C440  1  0.54752043  0.83239377  0.17250672  1
  H  H441  1  0.60125967  0.85832996  0.02405873  1
  C  C442  1  0.63604744  0.89416004  0.29312434  1
  H  H443  1  0.73732245  0.76653350  0.23478972  1
  C  C444  1  0.70879751  0.90672798  0.27897006  1
  H  H445  1  0.51798306  0.83948444  0.12654431  1
  C  C446  1  0.56828734  0.86767181  0.22666363  1
  H  H447  1  0.73155564  0.82761502  0.18430727  1
  O  O448  1  0.55728906  0.95958948  0.32381439  1
  C  C449  1  0.60152681  0.77826990  0.21524247  1
  H  H450  1  0.66980511  0.89602032  0.01049037  1
  C  C451  1  0.70133205  0.95005730  0.33643998  1
  H  H452  1  0.65304254  0.80251316  0.32095985  1
  H  H453  1  0.55542801  0.90186984  0.23941140  1
  C  C454  1  0.62832119  0.93961221  0.34127128  1
  C  C455  1  0.60845963  0.85751732  0.26087006  1
  C  C456  1  0.56413609  0.78945302  0.15905389  1
  C  C457  1  0.66299817  0.96496978  0.37969413  1
  H  H458  1  0.60290641  0.63570138  0.71307859  1
  H  H459  1  0.66788201  0.60177717  0.66470230  1
  C  C460  1  0.61489316  0.63729552  0.60103265  1
  C  C461  1  0.65040568  0.61630920  0.57042249  1
  C  C462  1  0.62390937  0.52821271  0.87331426  1
  C  C463  1  0.69484032  0.53774476  0.88641950  1
  C  C464  1  0.73522848  0.51382455  0.88376143  1
  C  C465  1  0.51947846  0.73335393  0.62367729  1
  C  C466  1  0.69094297  0.58370176  0.91775682  1
  C  C467  1  0.62116089  0.57321599  0.91760102  1
  C  C468  1  0.65401411  0.60192630  0.93705767  1
  C  C469  1  0.55228400  0.71302313  0.56037141  1
  C  C470  1  0.66126142  0.51163429  0.86006374  1
  C  C471  1  0.58122936  0.59159690  0.93937322  1
  O  O472  1  0.55259564  0.56614212  0.92483314  1
  C  C473  1  0.51679440  0.64053182  0.55064547  1
  C  C474  1  0.55019369  0.66672695  0.53148151  1
  H  H475  1  0.57699176  0.58741988  0.51027569  1
  H  H476  1  0.57869397  0.73189394  0.52743691  1
  H  H477  1  0.71750822  0.60203608  0.93979778  1
  Cu  Cu478  1  0.53780058  0.66866150  0.95731590  1
  H  H479  1  0.65165860  0.63768781  0.96290553  1
  O  O480  1  0.57923264  0.63230048  0.98257906  1
  O  O481  1  0.72007068  0.57591881  0.51946251  1
  Cu  Cu482  1  0.70899917  0.51658879  0.57226297  1
  H  H483  1  0.59778623  0.50921020  0.84777518  1
  H  H484  1  0.54609420  0.53606810  0.52891672  1
  O  O485  1  0.51671428  0.59154258  0.54305942  1
  C  C486  1  0.54731147  0.57249756  0.52537460  1
  C  C487  1  0.55038345  0.84875066  0.77218307  1
  C  C488  1  0.66908762  0.89520445  0.76951730  1
  C  C489  1  0.70967962  0.90772957  0.76265641  1
  C  C490  1  0.53976074  0.92669739  0.95370381  1
  H  H491  1  0.56567796  0.92037917  0.87749280  1
  O  O492  1  0.51167432  0.90279475  0.93337341  1
  H  H493  1  0.71755892  0.99661043  0.54175412  1
  H  H494  1  0.66065714  0.90151687  0.51825301  1
  C  C495  1  0.64677298  0.89194562  0.63047797  1
  C  C496  1  0.59184579  0.86554659  0.77932765  1
  C  C497  1  0.61359733  0.86931617  0.91532755  1
  O  O498  1  0.72912551  0.91017823  0.88215508  1
  H  H499  1  0.59142610  0.87848934  0.52651713  1
  C  C500  1  0.51496162  0.86494465  0.84135478  1
  C  C501  1  0.60864646  0.88077401  0.63657939  1
  C  C502  1  0.55376691  0.80887980  0.69275664  1
  O  O503  1  0.72763546  0.91853246  0.63735840  1
  C  C504  1  0.52049299  0.78187637  0.67892245  1
  C  C505  1  0.65177679  0.88876932  0.91319209  1
  H  H506  1  0.58371123  0.79955462  0.66642373  1
  C  C507  1  0.94256592  0.18265558  0.31825106  1
  C  C508  1  0.80532598  0.18958249  0.15206320  1
  C  C509  1  0.83742859  0.20726353  0.21912031  1
  H  H510  1  0.87626632  0.05280067  0.14091300  1
  H  H511  1  0.77485188  0.19878599  0.18086815  1
  C  C512  1  0.87446945  0.18932962  0.16892715  1
  C  C513  1  0.90949669  0.20797703  0.25358588  1
  C  C514  1  0.87928441  0.16012708  0.04702331  1
  C  C515  1  0.80947620  0.15643811  0.03903025  1
  O  O516  1  0.92274137  0.08721613  0.30578528  1
  H  H517  1  0.88710940  0.13989076  0.36639900  1
  C  C518  1  0.97516204  0.19787654  0.41920298  1
  C  C519  1  0.93802081  0.03824965  0.34626510  1
  C  C520  1  0.89491647  0.10311302  0.38446886  1
  H  H521  1  0.83434755  0.23264301  0.31121860  1
  O  O522  1  0.96670814  0.03329318  0.42026738  1
  H  H523  1  0.77962880  0.11756353  0.46269910  1
  C  C524  1  0.87782478  0.01937388  0.18430066  1
  H  H525  1  0.98953359  0.21468699  0.16876290  1
  H  H526  1  0.98702208  0.11012308  0.04992198  1
  C  C527  1  0.96848398  0.24397836  0.45595200  1
  C  C528  1  0.90915162  0.00645744  0.28602199  1
  O  O529  1  0.75565879  0.02255950  0.41882143  1
  C  C530  1  0.86471906  0.09787547  0.49025083  1
  H  H531  1  0.90905661  0.15311448  0.00290201  1
  C  C532  1  0.90823692  0.25468822  0.29014928  1
  C  C533  1  0.83598226  0.45473040  0.25906575  1
  C  C534  1  0.77791375  0.49175188  0.39561538  1
  Cu  Cu535  1  0.96384337  0.32337015  0.13397593  1
  C  C536  1  0.77310862  0.32014402  0.04137439  1
  C  C537  1  0.81545319  0.46690787  0.38816245  1
  H  H538  1  0.75592857  0.33753977  0.26915998  1
  H  H539  1  0.88418839  0.27715498  0.24344201  1
  C  C540  1  0.88895413  0.42594217  0.42170341  1
  C  C541  1  0.98366740  0.33205332  0.48502936  1
  C  C542  1  0.77327334  0.39542555  0.14182626  1
  C  C543  1  0.92399041  0.39467643  0.43671828  1
  H  H544  1  0.88970591  0.34237678  0.31979302  1
  C  C545  1  0.76521618  0.35168991  0.16075373  1
  C  C546  1  0.75454830  0.27576769  0.05995187  1
  C  C547  1  0.93843314  0.27028480  0.38496636  1
  C  C548  1  0.91839531  0.35187759  0.36996066  1
  C  C549  1  0.87097676  0.43128184  0.27912573  1
  H  H550  1  0.89085603  0.42265093  0.18189144  1
  H  H551  1  0.87930272  0.29615973  0.07746643  1
  H  H552  1  0.76895820  0.41879414  0.23925864  1
  C  C553  1  0.94783765  0.32026291  0.40591808  1
  H  H554  1  0.82599835  0.46269205  0.14586618  1
  O  O555  1  0.92280567  0.36046522  0.05761920  1
  O  O556  1  0.95705917  0.27360919  0.01946063  1
  O  O557  1  0.83000373  0.04674721  0.65934483  1
  C  C558  1  0.84147030  0.20972835  0.65858463  1
  C  C559  1  0.92459653  0.19317777  0.70082448  1
  H  H560  1  0.95741254  0.19058958  0.70505091  1
  H  H561  1  0.81144538  0.07688114  0.65525478  1
  C  C562  1  0.79990158  0.21260002  0.65600199  1
  O  O563  1  0.90598458  0.16654624  0.63196751  1
  C  C564  1  0.85622337  0.05835712  0.56383979  1
  C  C565  1  0.86178433  0.17151104  0.61071790  1
  C  C566  1  0.77739454  0.17852752  0.58737141  1
  C  C567  1  0.84001940  0.13909647  0.54291681  1
  H  H568  1  0.87845967  0.02752692  0.56661698  1
  O  O569  1  0.77906700  0.10746963  0.86493754  1
  H  H570  1  0.84807420  0.11697619  0.89382729  1
  C  C571  1  0.79788525  0.14182019  0.52204738  1
  H  H572  1  0.84530994  0.22860347  0.96423697  1
  H  H573  1  0.91119418  0.22457398  0.74885815  1
  H  H574  1  0.97827369  0.11935644  0.59436497  1
  O  O575  1  0.75249023  0.24719321  0.96098328  1
  C  C576  1  0.77413493  0.13849756  0.97211699  1
  O  O577  1  0.96789308  0.09841417  0.82984441  1
  C  C578  1  0.98570943  0.11679049  0.92379036  1
  C  C579  1  0.84666798  0.13989503  0.98698245  1
  H  H580  1  0.78408112  0.23708971  0.72134037  1
  C  C581  1  0.96389063  0.45563718  0.56383709  1
  H  H582  1  0.87864572  0.27628613  0.51240572  1
  C  C583  1  0.86045708  0.25328125  0.89463902  1
  C  C584  1  0.85661440  0.25227515  0.73525813  1
  C  C585  1  0.98050683  0.26000840  0.91937003  1
  H  H586  1  0.95744852  0.30024265  0.79568199  1
  C  C587  1  0.80003276  0.37926840  0.88652644  1
  H  H588  1  0.81328188  0.38732803  0.77457577  1
  C  C589  1  0.78654305  0.41073755  0.99330494  1
  O  O590  1  0.95882568  0.47953133  0.99915258  1
  C  C591  1  0.79400372  0.33401152  0.91776760  1
  C  C592  1  0.78156760  0.45829063  0.93741114  1
  H  H593  1  0.84410006  0.47077458  0.87577816  1
  H  H594  1  0.90874136  0.34261131  0.63089591  1
  C  C595  1  0.87793469  0.29021364  0.95729201  1
  H  H596  1  0.87933775  0.43195549  0.67368531  1
  C  C597  1  0.81371214  0.48373394  0.87517219  1
  C  C598  1  0.91456779  0.36038854  0.92196880  1
  O  O599  1  0.98590397  0.47756703  0.63871255  1
  Cu  Cu600  1  0.96856702  0.42891726  0.88828494  1
  H  H601  1  0.80622815  0.31197640  0.83221737  1
  C  C602  1  0.89658634  0.32117951  0.86239293  1
  H  H603  1  0.81225500  0.46906894  0.63479948  1
  O  O604  1  0.97994739  0.27906666  0.78202161  1
  O  O605  1  0.92786234  0.39074005  0.83211857  1
  C  C606  1  0.87779131  0.28072784  0.63375918  1
  H  H607  1  0.94396003  0.48466109  0.51858119  1
  C  C608  1  0.89571251  0.31742234  0.70283772  1
  C  C609  1  0.83082873  0.45919477  0.53535077  1
  C  C610  1  0.86698161  0.43882085  0.55656808  1
  C  C611  1  0.95900623  0.40848229  0.51887778  1
  C  C612  1  0.98917187  0.37545273  0.54239986  1
  H  H613  1  0.98842521  0.26218907  0.53481685  1
  C  C614  1  0.80819445  0.68775138  0.15849238  1
  C  C615  1  0.91910478  0.51554018  0.21175127  1
  C  C616  1  0.84206270  0.71443516  0.15676716  1
  C  C617  1  0.80636666  0.63992358  0.12575363  1
  H  H618  1  0.87106701  0.69930516  0.13266139  1
  C  C619  1  0.96018925  0.52133481  0.22673467  1
  O  O620  1  0.83618480  0.61984806  0.09533718  1
  O  O621  1  0.77240765  0.61835008  0.13230214  1
  C  C622  1  0.97683413  0.54098599  0.35715251  1
  C  C623  1  0.89288103  0.53499855  0.31383279  1
  H  H624  1  0.86040113  0.53519617  0.29391137  1
  H  H625  1  0.93025424  0.67711454  0.26502007  1
  C  C626  1  0.91570831  0.65103742  0.33955511  1
  H  H627  1  0.92470520  0.61690679  0.31918281  1
  H  H628  1  0.88174536  0.60194351  0.04810628  1
  C  C629  1  0.77058932  0.70833173  0.17697976  1
  O  O630  1  0.90961505  0.59263066  0.02750244  1
  H  H631  1  0.83832617  0.70792999  0.41428737  1
  C  C632  1  0.90895340  0.55995920  0.43643791  1
  C  C633  1  0.95097585  0.56320877  0.45238287  1
  O  O634  1  0.89163785  0.66087319  0.43760893  1
  Cu  Cu635  1  0.76217434  0.55881525  0.20870916  1
  H  H636  1  0.90655662  0.50276710  0.09705043  1
  O  O637  1  0.76247154  0.50289407  0.27089264  1
  C  C638  1  0.98234251  0.50145384  0.09640064  1
  C  C639  1  0.76568600  0.75351995  0.19746715  1
  H  H640  1  0.93449802  0.95595674  0.43765467  1
  C  C641  1  0.83864274  0.75968634  0.18272724  1
  H  H642  1  0.80710787  0.77973938  0.45652279  1
  H  H643  1  0.91441134  0.92260012  0.00653191  1
  O  O644  1  0.90246956  0.83809168  0.16928407  1
  C  C645  1  0.75753718  0.84892694  0.19065630  1
  C  C646  1  0.85376792  0.94360264  0.21575672  1
  H  H647  1  0.77744117  0.96153155  0.25705448  1
  C  C648  1  0.86946427  0.84806881  0.18203843  1
  H  H649  1  0.86513302  0.77956078  0.19758844  1
  C  C650  1  0.78272874  0.92641297  0.23817752  1
  C  C651  1  0.88781898  0.93120237  0.30628691  1
  H  H652  1  0.82927855  0.99693740  0.05925450  1
  C  C653  1  0.85103337  0.98831211  0.15033665  1
  C  C654  1  0.91393789  0.96380764  0.35038512  1
  H  H655  1  0.88951449  0.89769660  0.35911434  1
  C  C656  1  0.83042126  0.86099568  0.19990708  1
  C  C657  1  0.82163783  0.90954146  0.22026161  1
  C  C658  1  0.79617984  0.82979382  0.19451672  1
  C  C659  1  0.80081160  0.77983191  0.18045666  1
  C  C660  1  0.75106760  0.89414458  0.22969238  1
  C  C661  1  0.83542908  0.68745373  0.65961975  1
  C  C662  1  0.82991508  0.55939208  0.72173290  1
  C  C663  1  0.84567508  0.63833419  0.63932879  1
  C  C664  1  0.82538037  0.60617032  0.71894504  1
  C  C665  1  0.83033323  0.71668405  0.53291522  1
  C  C666  1  0.86284344  0.54940507  0.62871417  1
  C  C667  1  0.80273719  0.52588863  0.80779536  1
  H  H668  1  0.80089533  0.61651685  0.79442687  1
  C  C669  1  0.82502254  0.70345060  0.80472347  1
  C  C670  1  0.98237206  0.58725714  0.86257762  1
  C  C671  1  0.87989251  0.58262075  0.53892536  1
  C  C672  1  0.87368477  0.62911363  0.52570215  1
  C  C673  1  0.95953473  0.62418884  0.84921343  1
  C  C674  1  0.96615673  0.65681764  0.74008342  1
  H  H675  1  0.94711591  0.68569319  0.71439344  1
  C  C676  1  0.76421733  0.54085504  0.81449171  1
  H  H677  1  0.83270032  0.68100402  0.90256682  1
  H  H678  1  0.87160853  0.51472129  0.59864958  1
  C  C679  1  0.80901847  0.74521240  0.83689581  1
  C  C680  1  0.99843848  0.65298378  0.64868782  1
  C  C681  1  0.92162121  0.62853260  0.94040266  1
  O  O682  1  0.90636009  0.66392620  0.94581039  1
  H  H683  1  0.97406676  0.55988342  0.93871839  1
  H  H684  1  0.75378614  0.57185901  0.75029334  1
  H  H685  1  0.96021711  0.58431439  0.55073440  1
  O  O686  1  0.76193950  0.50282433  0.51983636  1
  H  H687  1  0.80344282  0.75637057  0.95339702  1
  C  C688  1  0.81441077  0.76003247  0.55592083  1
  C  C689  1  0.91953021  0.92503809  0.75042593  1
  Cu  Cu690  1  0.77818228  0.88822582  0.91132046  1
  C  C691  1  0.88267152  0.93597264  0.78751844  1
  C  C692  1  0.78635951  0.81577352  0.71643368  1
  C  C693  1  0.91085567  0.93840005  0.89599499  1
  O  O694  1  0.82009649  0.92734443  0.88282917  1
  O  O695  1  0.78198904  0.83038120  0.84813052  1
  C  C696  1  0.84060660  0.92741966  0.76568794  1
  O  O697  1  0.82906259  0.91278027  0.64157836  1
  C  C698  1  0.80308990  0.77201751  0.70543611  1
  Cu  Cu699  1  0.77703153  0.90163946  0.57293221  1
  O  O700  1  0.77284082  0.83729691  0.60444865  1
  H  H701  1  0.93199104  0.89307936  0.70801536  1
