# generated using pymatgen
data_CuH13C21O5
_symmetry_space_group_name_H-M   'P 1'
_cell_length_a   32.46545473
_cell_length_b   25.89857231
_cell_length_c   10.24960543
_cell_angle_alpha   90.00000000
_cell_angle_beta   90.00000000
_cell_angle_gamma   90.00000000
_symmetry_Int_Tables_number   1
_chemical_formula_structural   CuH13C21O5
_chemical_formula_sum   'Cu18 H234 C378 O90'
_cell_volume   8617.95974581
_cell_formula_units_Z   18
loop_
 _symmetry_equiv_pos_site_id
 _symmetry_equiv_pos_as_xyz
  1  'x, y, z'
loop_
 _atom_site_type_symbol
 _atom_site_label
 _atom_site_symmetry_multiplicity
 _atom_site_fract_x
 _atom_site_fract_y
 _atom_site_fract_z
 _atom_site_occupancy
  C  C0  1  0.09477284  0.12873743  0.16013678  1
  C  C1  1  0.09940584  0.17847169  0.22162027  1
  O  O2  1  0.06954238  0.09252699  0.20120881  1
  C  C3  1  0.06930501  0.04132298  0.13911283  1
  C  C4  1  0.13029600  0.21525352  0.20500933  1
  C  C5  1  0.16445773  0.20501317  0.12121157  1
  C  C6  1  0.07084384  0.19704318  0.32607977  1
  C  C7  1  0.12108568  0.13421126  0.04699171  1
  C  C8  1  0.20502843  0.23529381  0.11858933  1
  H  H9  1  0.23550347  0.17734006  0.23582207  1
  H  H10  1  0.21348264  0.06020731  0.33241941  1
  H  H11  1  0.05558192  0.00937689  0.19871465  1
  C  C12  1  0.23654697  0.40532683  0.12519554  1
  C  C13  1  0.04991799  0.16049113  0.41013435  1
  H  H14  1  0.04768737  0.04601093  0.05603917  1
  H  H15  1  0.05842948  0.12066822  0.40269907  1
  H  H16  1  0.18515156  0.30495662  0.01774411  1
  C  C17  1  0.06702502  0.27708641  0.03701463  1
  C  C18  1  0.23982394  0.21391359  0.18442642  1
  H  H19  1  0.22925450  0.48797176  0.16688035  1
  C  C20  1  0.22987336  0.45655673  0.09015343  1
  C  C21  1  0.03508320  0.27121481  0.42586690  1
  C  C22  1  0.20573212  0.13819593  0.42155056  1
  H  H23  1  0.07808769  0.27800385  0.26155122  1
  H  H24  1  0.06664217  0.23688269  0.07939325  1
  H  H25  1  0.13102274  0.25037627  0.26576714  1
  H  H26  1  0.15431646  0.18978614  0.39625500  1
  C  C27  1  0.06331705  0.25236111  0.33520973  1
  C  C28  1  0.18410519  0.37725563  0.40706151  1
  H  H29  1  0.21011061  0.30239046  0.33974091  1
  C  C30  1  0.23326978  0.44252133  0.46981508  1
  H  H31  1  0.09859562  0.02677067  0.09386299  1
  O  O32  1  0.13758067  0.31738475  0.32924917  1
  C  C33  1  0.14148206  0.36001474  0.37026971  1
  C  C34  1  0.21622568  0.34274125  0.37931048  1
  C  C35  1  0.22593762  0.09163535  0.39932909  1
  H  H36  1  0.02458502  0.31249293  0.42802012  1
  C  C37  1  0.03613003  0.31540629  0.06532016  1
  O  O38  1  0.11080777  0.39165953  0.39742288  1
  C  C39  1  0.21157125  0.28497692  0.06976193  1
  C  C40  1  0.19256155  0.42863781  0.44506865  1
  H  H41  1  0.00026348  0.38916595  0.20394379  1
  H  H42  1  0.16909138  0.45718889  0.46864000  1
  O  O43  1  0.00335934  0.21084776  0.12297632  1
  H  H44  1  0.24227179  0.39479982  0.22580422  1
  H  H45  1  0.01575815  0.12702873  0.15137835  1
  C  C46  1  0.23951073  0.36474973  0.03072453  1
  C  C47  1  0.24954181  0.31010931  0.08234231  1
  C  C48  1  0.03723530  0.36616495  0.00590839  1
  H  H49  1  0.01652797  0.39689998  0.03588497  1
  C  C50  1  0.15527479  0.16688011  0.02765105  1
  C  C51  1  0.18556468  0.18414553  0.43886405  1
  H  H52  1  0.05411428  0.15286553  0.00027953  1
  C  C53  1  0.07870688  0.09370745  0.87471152  1
  H  H54  1  0.07432043  0.06724693  0.79340167  1
  C  C55  1  0.02601668  0.02472040  0.61451301  1
  H  H56  1  0.09198440  0.02441530  0.64888479  1
  O  O57  1  0.14920057  0.04853882  0.75610672  1
  C  C58  1  0.14996049  0.06713429  0.86222343  1
  H  H59  1  0.02266737  0.06830152  0.61692924  1
  C  C60  1  0.06392068  0.00138490  0.63077623  1
  O  O61  1  0.05619892  0.45435843  0.60226681  1
  C  C62  1  0.04542376  0.12387479  0.92861531  1
  H  H63  1  0.18009582  0.05673069  0.91227357  1
  C  C64  1  0.11761708  0.09798250  0.93267878  1
  C  C65  1  0.09700185  0.33973707  0.89036772  1
  C  C66  1  0.21820281  0.46359643  0.95780718  1
  H  H67  1  0.01075560  0.01698567  0.86186454  1
  H  H68  1  0.01058225  0.14932716  0.57583736  1
  C  C69  1  0.09628008  0.28964735  0.94416992  1
  H  H70  1  0.17862961  0.15522649  0.95247571  1
  H  H71  1  0.07052635  0.41847598  0.87622155  1
  O  O72  1  0.21865955  0.26239153  0.55749845  1
  O  O73  1  0.12625590  0.39671501  0.71673544  1
  H  H74  1  0.23519153  0.34454754  0.82347125  1
  C  C75  1  0.12759068  0.35214047  0.78230569  1
  C  C76  1  0.01952341  0.44095840  0.62879115  1
  H  H77  1  0.11841634  0.25938569  0.91006001  1
  H  H78  1  0.20553879  0.43510897  0.76724680  1
  O  O79  1  0.15254335  0.32030550  0.75731968  1
  C  C80  1  0.21679055  0.42555311  0.86564001  1
  C  C81  1  0.06910280  0.38055761  0.92172087  1
  Cu  Cu82  1  0.10139722  0.40997375  0.56302198  1
  C  C83  1  0.20391566  0.22748365  0.50518460  1
  O  O84  1  0.00614684  0.39391549  0.61678601  1
  C  C85  1  0.00536101  0.10490970  0.91539965  1
  C  C86  1  0.22972369  0.37463293  0.89880486  1
  C  C87  1  0.02287902  0.17812652  0.50526605  1
  C  C88  1  0.01682710  0.23311220  0.50795072  1
  H  H89  1  0.24154762  0.48141489  0.50148511  1
  C  C90  1  0.04153453  0.57567594  0.21741056  1
  O  O91  1  0.11614562  0.59172512  0.19841920  1
  O  O92  1  0.20235593  0.69172289  0.16455003  1
  C  C93  1  0.07941781  0.59494243  0.14054882  1
  C  C94  1  0.04581776  0.55609877  0.34469762  1
  C  C95  1  0.01215672  0.53199450  0.40155902  1
  H  H96  1  0.23819374  0.77989321  0.02546774  1
  H  H97  1  0.22977809  0.97281359  0.19707405  1
  Cu  Cu98  1  0.16121723  0.57891949  0.10839366  1
  C  C99  1  0.00640949  0.57379559  0.14216573  1
  C  C100  1  0.05301289  0.93024450  0.05506098  1
  H  H101  1  0.15995214  0.95079740  0.28541312  1
  C  C102  1  0.05604744  0.86946570  0.27337870  1
  C  C103  1  0.01872526  0.86983776  0.21931084  1
  C  C104  1  0.23319596  0.89451702  0.39144157  1
  C  C105  1  0.09085193  0.92110573  0.12847950  1
  C  C106  1  0.13136892  0.94486728  0.09051747  1
  H  H107  1  0.22122817  0.85538161  0.37698526  1
  H  H108  1  0.17564207  0.77884953  0.15334391  1
  C  C109  1  0.09354798  0.89049519  0.24394440  1
  H  H110  1  0.12241054  0.88173571  0.29993600  1
  H  H111  1  0.22012832  0.84932854  0.19728055  1
  C  C112  1  0.16467568  0.95428917  0.18028961  1
  C  C113  1  0.01932183  0.89843274  0.09474682  1
  C  C114  1  0.20284343  0.96929438  0.13482332  1
  C  C115  1  0.16803317  0.77864011  0.04576489  1
  H  H116  1  0.07628976  0.55944842  0.39839905  1
  O  O117  1  0.20390980  0.55095212  0.01457564  1
  H  H118  1  0.00727618  0.58605884  0.03894901  1
  H  H119  1  0.17026388  0.86512426  0.01143847  1
  C  C120  1  0.17821086  0.68674952  0.06878590  1
  O  O121  1  0.07543022  0.60990651  0.03188177  1
  O  O122  1  0.16753779  0.64329506  0.01847007  1
  H  H123  1  0.14359542  0.96801005  0.48507536  1
  C  C124  1  0.21583793  0.92742571  0.48860123  1
  H  H125  1  0.01330097  0.51343212  0.49771341  1
  H  H126  1  0.14734217  0.68418624  0.81215873  1
  C  C127  1  0.15419724  0.72211965  0.85682155  1
  H  H128  1  0.04010113  0.53342984  0.70059257  1
  C  C129  1  0.00923903  0.52372687  0.73790556  1
  H  H130  1  0.01391151  0.95563302  0.78703689  1
  C  C131  1  0.20579915  0.51811565  0.91913881  1
  O  O132  1  0.05185513  0.96294894  0.95639598  1
  O  O133  1  0.19638658  0.52992286  0.81156063  1
  C  C134  1  0.10570771  0.88022513  0.72444984  1
  H  H135  1  0.00687688  0.72042542  0.96925820  1
  C  C136  1  0.03209134  0.91742307  0.58776204  1
  C  C137  1  0.01267797  0.97482991  0.88142209  1
  C  C138  1  0.18026352  0.90794804  0.57239150  1
  C  C139  1  0.16735844  0.72919758  0.98313989  1
  C  C140  1  0.14249923  0.93616254  0.55755428  1
  H  H141  1  0.14089226  0.76237319  0.67904023  1
  C  C142  1  0.14811784  0.76623966  0.78120874  1
  H  H143  1  0.03943170  0.81589750  0.91450342  1
  H  H144  1  0.22795968  0.99827328  0.59781078  1
  H  H145  1  0.01213993  0.88654359  0.82112838  1
  O  O146  1  0.00501847  0.78739789  0.52970466  1
  C  C147  1  0.10930392  0.92160798  0.63480542  1
  H  H148  1  0.08856605  0.79643191  0.83462228  1
  O  O149  1  0.07090461  0.86690596  0.78786771  1
  C  C150  1  0.14515544  0.85718342  0.73965066  1
  H  H151  1  0.11568493  0.93732756  0.87984508  1
  C  C152  1  0.07132434  0.82885958  0.88317414  1
  C  C153  1  0.16452990  0.82377692  0.97187450  1
  H  H154  1  0.03552617  0.87562106  0.57705810  1
  C  C155  1  0.18191933  0.86905117  0.67217127  1
  C  C156  1  0.15305364  0.81463018  0.84142068  1
  C  C157  1  0.17798514  0.96083302  0.90916781  1
  H  H158  1  0.08674229  0.83664210  0.97800089  1
  H  H159  1  0.18322649  0.96438455  0.80552669  1
  H  H160  1  0.21316775  0.85474805  0.69444459  1
  C  C161  1  0.06728691  0.94766687  0.61080181  1
  H  H162  1  0.00302175  0.59300518  0.84420620  1
  C  C163  1  0.23822919  0.97380708  0.51872327  1
  C  C164  1  0.13911065  0.94704069  0.95328258  1
  C  C165  1  0.20963963  0.97363766  0.99692757  1
  C  C166  1  0.31762404  0.16879818  0.29113831  1
  H  H167  1  0.31511313  0.15159637  0.19589313  1
  H  H168  1  0.34240324  0.09850047  0.36776361  1
  C  C169  1  0.46280603  0.05266387  0.21095859  1
  C  C170  1  0.33186141  0.13948811  0.39391986  1
  C  C171  1  0.42758374  0.22373309  0.36809119  1
  H  H172  1  0.46438563  0.09321824  0.16814015  1
  C  C173  1  0.30029044  0.21890271  0.31343359  1
  C  C174  1  0.35359106  0.00635533  0.30816637  1
  H  H175  1  0.39761297  0.22823180  0.31885783  1
  C  C176  1  0.40999437  0.04081245  0.04909199  1
  H  H177  1  0.37409133  0.00924499  0.39591099  1
  H  H178  1  0.37359335  0.01531522  0.22094383  1
  H  H179  1  0.33473721  0.04059092  0.31213098  1
  C  C180  1  0.43268485  0.01815459  0.15984934  1
  C  C181  1  0.30211885  0.23883709  0.44382630  1
  C  C182  1  0.28377028  0.29370543  0.15293292  1
  H  H183  1  0.39980532  0.49922687  0.35610771  1
  C  C184  1  0.32552549  0.36691343  0.10105749  1
  H  H185  1  0.41321078  0.46822753  0.03747029  1
  C  C186  1  0.46577104  0.41470984  0.03639029  1
  H  H187  1  0.41545039  0.44665663  0.21450790  1
  C  C188  1  0.30857645  0.42998123  0.48577359  1
  C  C189  1  0.46353484  0.32818277  0.16289242  1
  O  O190  1  0.47146251  0.49548299  0.33534672  1
  C  C191  1  0.42363685  0.33157278  0.37409301  1
  C  C192  1  0.27440918  0.24360020  0.20835684  1
  C  C193  1  0.41284100  0.38243959  0.35091578  1
  H  H194  1  0.49765108  0.43682438  0.43791128  1
  C  C195  1  0.49914867  0.25669978  0.43283933  1
  H  H196  1  0.30525069  0.39870961  0.12877105  1
  C  C197  1  0.44963738  0.38087399  0.14320085  1
  H  H198  1  0.35925871  0.37861623  0.11824533  1
  C  C199  1  0.42357574  0.40586934  0.23134334  1
  C  C200  1  0.46167337  0.25931394  0.35433000  1
  H  H201  1  0.32810366  0.36912003  0.35984736  1
  C  C202  1  0.33971420  0.40170425  0.42050980  1
  C  C203  1  0.38184652  0.41463204  0.43491275  1
  H  H204  1  0.47456066  0.21633881  0.14948959  1
  O  O205  1  0.31919890  0.31738712  0.17305397  1
  H  H206  1  0.41271645  0.30984421  0.46058240  1
  C  C207  1  0.49849463  0.24588448  0.12634329  1
  C  C208  1  0.44873310  0.30696877  0.28086564  1
  H  H209  1  0.28200035  0.33540934  0.37960435  1
  C  C210  1  0.43296884  0.18493089  0.46472069  1
  O  O211  1  0.48779636  0.30270020  0.08518323  1
  C  C212  1  0.25627332  0.35880170  0.40547383  1
  C  C213  1  0.44453954  0.46319278  0.00834360  1
  C  C214  1  0.48905308  0.03302940  0.30622032  1
  C  C215  1  0.26738401  0.40719002  0.45613818  1
  H  H216  1  0.28838964  0.27722539  0.45944747  1
  H  H217  1  0.48471650  0.41861124  0.27656078  1
  C  C218  1  0.49703689  0.45027749  0.33508806  1
  C  C219  1  0.28573091  0.03982614  0.49090317  1
  C  C220  1  0.26280653  0.08516075  0.47436227  1
  H  H221  1  0.41036740  0.15447139  0.48445814  1
  O  O222  1  0.34973779  0.14068059  0.73957377  1
  Cu  Cu223  1  0.43180090  0.08459478  0.81780785  1
  O  O224  1  0.44841757  0.11034656  0.65956295  1
  C  C225  1  0.34395053  0.12437940  0.63142036  1
  O  O226  1  0.35160248  0.06547352  0.60785837  1
  O  O227  1  0.47392195  0.03392534  0.81242830  1
  C  C228  1  0.32446452  0.03715046  0.55069260  1
  C  C229  1  0.31987787  0.21090954  0.54558880  1
  H  H230  1  0.27580965  0.12051926  0.50777550  1
  C  C231  1  0.47644754  0.14508147  0.64715364  1
  H  H232  1  0.32633927  0.22927322  0.63897023  1
  C  C233  1  0.39106357  0.44783063  0.53452438  1
  H  H234  1  0.48746679  0.04825976  0.50769420  1
  C  C235  1  0.33059818  0.15749266  0.52515919  1
  H  H236  1  0.49516187  0.46460022  0.66740537  1
  H  H237  1  0.42570148  0.45925738  0.54481256  1
  C  C238  1  0.49211197  0.01026277  0.90554507  1
  C  C239  1  0.35930072  0.47665356  0.59484836  1
  H  H240  1  0.32173672  0.35893230  0.99293780  1
  C  C241  1  0.31747895  0.47149039  0.57347841  1
  C  C242  1  0.46904416  0.18343271  0.54191092  1
  Cu  Cu243  1  0.37313863  0.00921722  0.81746052  1
  O  O244  1  0.41757873  0.08363442  0.99885334  1
  O  O245  1  0.38804320  0.00694529  0.99017241  1
  C  C246  1  0.33142215  0.59735061  0.34365144  1
  C  C247  1  0.28611467  0.60750939  0.31954964  1
  C  C248  1  0.35434214  0.64312584  0.37118651  1
  C  C249  1  0.41430350  0.58244795  0.38546992  1
  C  C250  1  0.39562963  0.63305062  0.38872821  1
  C  C251  1  0.34577984  0.54696644  0.33878598  1
  H  H252  1  0.33905625  0.68164855  0.38914744  1
  C  C253  1  0.45825914  0.58055032  0.42706211  1
  O  O254  1  0.26109000  0.57461558  0.29855246  1
  O  O255  1  0.27375900  0.65521952  0.31916964  1
  O  O256  1  0.40383692  0.61658038  0.08913191  1
  H  H257  1  0.41772883  0.66629052  0.40455086  1
  C  C258  1  0.38793928  0.53923461  0.36197554  1
  C  C259  1  0.48306387  0.53445715  0.40704643  1
  Cu  Cu260  1  0.38570976  0.68056060  0.13832133  1
  O  O261  1  0.41317462  0.73570903  0.18431198  1
  H  H262  1  0.32478054  0.51518388  0.31087330  1
  Cu  Cu263  1  0.33300228  0.99360484  0.02420310  1
  C  C264  1  0.41472065  0.75279445  0.30875104  1
  C  C265  1  0.26911747  0.90927336  0.32498904  1
  C  C266  1  0.45764625  0.76011646  0.35330344  1
  C  C267  1  0.46185448  0.77535062  0.48709031  1
  C  C268  1  0.31649862  0.73018703  0.03333186  1
  C  C269  1  0.27240037  0.98452552  0.44086140  1
  C  C270  1  0.33639468  0.80940157  0.14351551  1
  C  C271  1  0.48663137  0.97692219  0.33573057  1
  O  O272  1  0.38459337  0.75697067  0.37131192  1
  H  H273  1  0.44630879  0.91008684  0.33747010  1
  O  O274  1  0.32975498  0.95959804  0.28692854  1
  C  C275  1  0.30476317  0.77976429  0.09208947  1
  C  C276  1  0.26293398  0.79672814  0.08685331  1
  H  H277  1  0.36822714  0.79476367  0.13781400  1
  O  O278  1  0.28877699  0.69706282  0.01543898  1
  H  H279  1  0.48431362  0.73460557  0.16901092  1
  C  C280  1  0.45123670  0.94774345  0.29694275  1
  C  C281  1  0.28404545  0.87060383  0.22669754  1
  H  H282  1  0.35095010  0.88225441  0.23932464  1
  C  C283  1  0.29400297  0.95389754  0.34789520  1
  H  H284  1  0.39687071  0.94587947  0.17449354  1
  C  C285  1  0.32634933  0.85669989  0.20418394  1
  C  C286  1  0.42613026  0.96655864  0.20412943  1
  Cu  Cu287  1  0.25759835  0.68181237  0.15416417  1
  C  C288  1  0.48997724  0.75032984  0.26565359  1
  O  O289  1  0.35378367  0.72058626  0.02020093  1
  C  C290  1  0.25296243  0.83794264  0.16985715  1
  O  O291  1  0.27667085  0.98992381  0.05587309  1
  C  C292  1  0.47033520  0.62522127  0.49363965  1
  C  C293  1  0.42970799  0.57067081  0.76101224  1
  H  H294  1  0.46055115  0.58998737  0.74768442  1
  C  C295  1  0.40689042  0.57896801  0.87777997  1
  C  C296  1  0.36920680  0.55524826  0.90524843  1
  O  O297  1  0.45890809  0.63123093  0.96513466  1
  H  H298  1  0.45961459  0.70813031  0.69010820  1
  C  C299  1  0.28941136  0.55638459  0.63827485  1
  H  H300  1  0.41642747  0.72422328  0.84699138  1
  H  H301  1  0.45100909  0.65939016  0.50674638  1
  C  C302  1  0.41140679  0.54078927  0.66850124  1
  C  C303  1  0.35319932  0.52138657  0.81729494  1
  H  H304  1  0.45585009  0.54123879  0.94267276  1
  C  C305  1  0.49165144  0.70449460  0.71831673  1
  C  C306  1  0.42555066  0.61144293  0.97904426  1
  C  C307  1  0.37427637  0.51276535  0.69934397  1
  O  O308  1  0.26359184  0.98837304  0.84563362  1
  H  H309  1  0.27047868  0.56453353  0.72941353  1
  H  H310  1  0.27911896  0.57857301  0.55153111  1
  H  H311  1  0.42673421  0.53473600  0.57767555  1
  O  O312  1  0.39755092  0.94532002  0.79917716  1
  C  C313  1  0.42647465  0.76387234  0.83165373  1
  C  C314  1  0.38253768  0.89912896  0.80059687  1
  H  H315  1  0.32129712  0.57236047  0.66082544  1
  O  O316  1  0.34447227  0.89182451  0.79359913  1
  C  C317  1  0.45632900  0.86870054  0.80593591  1
  C  C318  1  0.41292018  0.85819138  0.80815245  1
  C  C319  1  0.47005363  0.77670054  0.83245617  1
  C  C320  1  0.48389055  0.82893255  0.82044744  1
  Cu  Cu321  1  0.42553491  0.95899484  0.95143460  1
  H  H322  1  0.36646720  0.79997961  0.83318219  1
  H  H323  1  0.46716238  0.90843005  0.78307003  1
  Cu  Cu324  1  0.30683536  0.94665847  0.81566161  1
  C  C325  1  0.40114262  0.80658613  0.82381295  1
  H  H326  1  0.43696904  0.77847340  0.55771118  1
  O  O327  1  0.48238882  0.96556333  0.94152183  1
  C  C328  1  0.25089442  0.98942470  0.95877546  1
  C  C329  1  0.46846533  0.50287461  0.95394810  1
  H  H330  1  0.32397593  0.50289521  0.84282739  1
  H  H331  1  0.33992446  0.99764761  0.55607222  1
  O  O332  1  0.28734537  0.50113128  0.63564397  1
  H  H333  1  0.35576459  0.56516839  0.99990023  1
  C  C334  1  0.70304481  0.04390677  0.34799039  1
  C  C335  1  0.64692327  0.20546584  0.16939028  1
  C  C336  1  0.61513083  0.17088254  0.20953439  1
  O  O337  1  0.57915767  0.18413629  0.27059445  1
  C  C338  1  0.57674213  0.03608802  0.15030553  1
  H  H339  1  0.59301245  0.01679047  0.23111075  1
  C  C340  1  0.68556586  0.19009032  0.12083974  1
  C  C341  1  0.54954702  0.14681478  0.30923915  1
  H  H342  1  0.56522713  0.12054526  0.37545935  1
  C  C343  1  0.62480717  0.12132024  0.15067847  1
  O  O344  1  0.71520936  0.47551209  0.26234366  1
  C  C345  1  0.66126204  0.09968440  0.09782340  1
  C  C346  1  0.58994761  0.08529091  0.10726143  1
  H  H347  1  0.54188424  0.12172285  0.21768533  1
  H  H348  1  0.52017728  0.15976665  0.35138627  1
  H  H349  1  0.71050417  0.21724251  0.12365928  1
  C  C350  1  0.54473668  0.01153921  0.08610138  1
  H  H351  1  0.72497512  0.05435995  0.27447615  1
  H  H352  1  0.51383764  0.05830073  0.34384247  1
  O  O353  1  0.62760611  0.44889350  0.05678188  1
  H  H354  1  0.72810759  0.40301463  0.36583352  1
  H  H355  1  0.52451925  0.28222045  0.42576201  1
  C  C356  1  0.67241078  0.00866277  0.32768569  1
  C  C357  1  0.70292859  0.07950131  0.45362987  1
  H  H358  1  0.68395988  0.27681699  0.02078897  1
  H  H359  1  0.51943713  0.25080390  0.21442813  1
  C  C360  1  0.60716631  0.42247505  0.14638449  1
  C  C361  1  0.71285944  0.42253124  0.27905648  1
  C  C362  1  0.65915064  0.29354537  0.08475470  1
  C  C363  1  0.59803637  0.33888928  0.25806332  1
  H  H364  1  0.53150392  0.45387140  0.30065497  1
  H  H365  1  0.70554356  0.48578762  0.48395419  1
  C  C366  1  0.60934291  0.28651203  0.26749121  1
  H  H367  1  0.59386771  0.26169124  0.33273310  1
  C  C368  1  0.63762095  0.26301408  0.17989115  1
  H  H369  1  0.72264474  0.40241134  0.18124335  1
  O  O370  1  0.57637376  0.43947610  0.19585170  1
  H  H371  1  0.68072437  0.40616617  0.29424211  1
  C  C372  1  0.69220755  0.13776520  0.08312543  1
  C  C373  1  0.64695401  0.34484734  0.07557321  1
  H  H374  1  0.57416614  0.35649068  0.31874647  1
  C  C375  1  0.61972425  0.36729304  0.16397578  1
  C  C376  1  0.73648417  0.11734241  0.45472034  1
  H  H377  1  0.51723182  0.22925351  0.04777433  1
  H  H378  1  0.65853700  0.37246389  0.00338871  1
  C  C379  1  0.63780428  0.00842488  0.42066462  1
  C  C380  1  0.56914836  0.11176819  0.00648525  1
  C  C381  1  0.73210193  0.12512274  0.01592626  1
  C  C382  1  0.58067081  0.47864261  0.47248151  1
  H  H383  1  0.63035062  0.42499331  0.46209403  1
  H  H384  1  0.52156892  0.36634222  0.00079085  1
  H  H385  1  0.66457378  0.05901595  0.07274812  1
  H  H386  1  0.67559615  0.10118830  0.63919425  1
  H  H387  1  0.51596231  0.10517994  0.87787120  1
  C  C388  1  0.67292934  0.07680576  0.55635140  1
  H  H389  1  0.61900863  0.03726843  0.61229198  1
  C  C390  1  0.51283157  0.03294794  0.57128313  1
  C  C391  1  0.73767245  0.07843698  0.94596160  1
  C  C392  1  0.52626875  0.03460913  0.97410259  1
  C  C393  1  0.53686491  0.08520778  0.94726726  1
  C  C394  1  0.52854255  0.44314736  0.92139008  1
  O  O395  1  0.74133847  0.14457331  0.55477134  1
  H  H396  1  0.57953056  0.14916303  0.98420656  1
  C  C397  1  0.54127657  0.48965907  0.53035282  1
  C  C398  1  0.64245504  0.03938566  0.53958796  1
  H  H399  1  0.51605595  0.06454134  0.64184319  1
  C  C400  1  0.52498108  0.45536455  0.62685939  1
  C  C401  1  0.60207043  0.43324707  0.50959948  1
  O  O402  1  0.73747614  0.35837741  0.82715207  1
  O  O403  1  0.50307489  0.15135148  0.72555154  1
  C  C404  1  0.68728112  0.47296279  0.71991596  1
  H  H405  1  0.52634361  0.21165352  0.59782810  1
  C  C406  1  0.50645130  0.40451445  0.98638343  1
  O  O407  1  0.64589140  0.35049000  0.60676791  1
  O  O408  1  0.69397805  0.43180132  0.65363274  1
  Cu  Cu409  1  0.61483517  0.48470346  0.89968560  1
  H  H410  1  0.53009686  0.38064328  0.72734362  1
  C  C411  1  0.54552816  0.41015500  0.65881682  1
  Cu  Cu412  1  0.69379422  0.36101409  0.71089590  1
  H  H413  1  0.55929183  0.43661234  0.88053647  1
  C  C414  1  0.58538381  0.40233268  0.60732362  1
  C  C415  1  0.50977508  0.49249871  0.91188384  1
  O  O416  1  0.59529348  0.33099093  0.73912859  1
  C  C417  1  0.60936296  0.35658701  0.65410047  1
  O  O418  1  0.67132651  0.47277673  0.83265271  1
  H  H419  1  0.74432392  0.04468318  0.63461937  1
  H  H420  1  0.71682360  0.04566224  0.95372542  1
  O  O421  1  0.55515106  0.02451669  0.51017494  1
  C  C422  1  0.50176824  0.21917620  0.52905953  1
  H  H423  1  0.65469622  0.68879042  0.24288925  1
  C  C424  1  0.66169790  0.64914054  0.20968538  1
  C  C425  1  0.58486820  0.63445630  0.17117941  1
  O  O426  1  0.57513824  0.67565349  0.20847409  1
  C  C427  1  0.70260839  0.62958820  0.21084075  1
  C  C428  1  0.63012301  0.61631408  0.16847466  1
  C  C429  1  0.71026462  0.58052492  0.15543713  1
  C  C430  1  0.63782740  0.56683074  0.11825661  1
  C  C431  1  0.67730352  0.55058690  0.10371513  1
  H  H432  1  0.72711046  0.64908183  0.26397930  1
  O  O433  1  0.55801918  0.60476120  0.11906879  1
  H  H434  1  0.61110493  0.54137316  0.08707994  1
  H  H435  1  0.59962905  0.73601015  0.36750513  1
  C  C436  1  0.71913217  0.56589947  0.45977954  1
  C  C437  1  0.68776021  0.74159770  0.42778307  1
  O  O438  1  0.68171212  0.79860879  0.10895670  1
  Cu  Cu439  1  0.50857545  0.61689107  0.03297379  1
  H  H440  1  0.59883827  0.82106379  0.05532817  1
  H  H441  1  0.72323614  0.80522848  0.33463780  1
  H  H442  1  0.61618262  0.75590735  0.00472259  1
  C  C443  1  0.60838255  0.76725597  0.43438728  1
  C  C444  1  0.70739717  0.89364011  0.08730599  1
  C  C445  1  0.72731512  0.66632600  0.46988296  1
  C  C446  1  0.69339693  0.84054024  0.09981660  1
  C  C447  1  0.60274983  0.97498759  0.39335408  1
  C  C448  1  0.57798707  0.79992593  0.48089887  1
  C  C449  1  0.65064587  0.77487716  0.46408901  1
  H  H450  1  0.53323887  0.97571922  0.12616878  1
  H  H451  1  0.67564701  0.98534046  0.23562140  1
  H  H452  1  0.50857563  0.87500258  0.29846041  1
  C  C453  1  0.56205507  0.98507106  0.43494183  1
  C  C454  1  0.52865663  0.76153070  0.31047713  1
  H  H455  1  0.55606155  0.75520074  0.25354339  1
  C  C456  1  0.61021615  0.92748823  0.31931400  1
  C  C457  1  0.52634847  0.95795632  0.37613481  1
  C  C458  1  0.53598427  0.78336502  0.43979636  1
  C  C459  1  0.72988235  0.92975889  0.17957311  1
  H  H460  1  0.73918942  0.92178186  0.28882328  1
  C  C461  1  0.72233127  0.76569854  0.36944809  1
  C  C462  1  0.57327302  0.90408836  0.31348057  1
  H  H463  1  0.68361934  0.51231322  0.06254836  1
  H  H464  1  0.64112852  0.91384571  0.28613034  1
  C  C465  1  0.53254482  0.90614790  0.32456987  1
  H  H466  1  0.72601775  0.56350597  0.35754602  1
  H  H467  1  0.59304848  0.50330040  0.39868071  1
  O  O468  1  0.74094514  0.97400548  0.16767997  1
  C  C469  1  0.68955732  0.69157817  0.48364518  1
  H  H470  1  0.58153096  0.64018157  0.69554366  1
  C  C471  1  0.55879232  0.66937761  0.71973877  1
  C  C472  1  0.61776284  0.70090845  0.82754545  1
  C  C473  1  0.57171570  0.70822239  0.80524162  1
  H  H474  1  0.55661910  0.57467729  0.63481112  1
  C  C475  1  0.69319326  0.57031503  0.73254045  1
  C  C476  1  0.51877547  0.66777570  0.66752875  1
  H  H477  1  0.68398592  0.57125460  0.83664183  1
  C  C478  1  0.70797848  0.61299449  0.66286254  1
  H  H479  1  0.70876190  0.64932261  0.72209689  1
  C  C480  1  0.70142755  0.70123783  0.85051680  1
  C  C481  1  0.53371351  0.53657695  0.86420951  1
  O  O482  1  0.51924187  0.58038815  0.86832719  1
  C  C483  1  0.63473493  0.66391253  0.90871643  1
  O  O484  1  0.57149507  0.52823379  0.83074059  1
  C  C485  1  0.52870877  0.57981459  0.57120501  1
  C  C486  1  0.67745975  0.66699613  0.91996952  1
  C  C487  1  0.71975555  0.61308296  0.53201725  1
  H  H488  1  0.66260376  0.67024972  0.52374977  1
  C  C489  1  0.59849490  0.79343521  0.97343277  1
  C  C490  1  0.70744627  0.52274694  0.53195006  1
  C  C491  1  0.58101733  0.84318188  0.56667491  1
  H  H492  1  0.61708477  0.81130780  0.88939107  1
  H  H493  1  0.61730167  0.63301748  0.96480921  1
  C  C494  1  0.50585898  0.62732005  0.56679130  1
  C  C495  1  0.64194291  0.73523817  0.75011510  1
  C  C496  1  0.54566836  0.74628959  0.86754011  1
  C  C497  1  0.68482299  0.73650246  0.75923913  1
  C  C498  1  0.74800340  0.69939511  0.85290079  1
  O  O499  1  0.55498194  0.78281201  0.94865795  1
  H  H500  1  0.62480605  0.76204631  0.68693032  1
  H  H501  1  0.67015105  0.85678237  0.88697538  1
  C  C502  1  0.66359458  0.92194950  0.74594770  1
  H  H503  1  0.53749038  0.93573982  0.74547886  1
  C  C504  1  0.65902026  0.81899501  0.53835771  1
  H  H505  1  0.70507121  0.76144545  0.70524643  1
  C  C506  1  0.69667799  0.92200955  0.96907171  1
  H  H507  1  0.51805274  0.83697371  0.80634852  1
  C  C508  1  0.64459937  0.88749068  0.66537507  1
  H  H509  1  0.58463353  0.89821242  0.77039072  1
  O  O510  1  0.55280525  0.86854575  0.61845841  1
  H  H511  1  0.58095945  0.94956920  0.64762188  1
  H  H512  1  0.69061056  0.82753812  0.57326080  1
  C  C513  1  0.62630212  0.85057101  0.58113800  1
  C  C514  1  0.56414036  0.91705269  0.69856986  1
  H  H515  1  0.67001169  0.96269665  0.71429276  1
  C  C516  1  0.67791239  0.89668655  0.86992491  1
  C  C517  1  0.69382694  0.52304979  0.66294191  1
  H  H518  1  0.70119192  0.96294425  0.96157932  1
  C  C519  1  0.50083541  0.78981156  0.52393196  1
  H  H520  1  0.50456157  0.80141097  0.62451160  1
  C  C521  1  0.51512836  0.53767848  0.50072702  1
  H  H522  1  0.73858834  0.95210157  0.53769156  1
  C  C523  1  0.50502664  0.74067837  0.81127263  1
  H  H524  1  0.50312660  0.99675950  0.62112805  1
  H  H525  1  0.69365547  0.64141348  0.99000431  1
  C  C526  1  0.87622451  0.11976467  0.28635454  1
  O  O527  1  0.84685882  0.04867253  0.19096491  1
  C  C528  1  0.87915659  0.14374093  0.16160444  1
  C  C529  1  0.86059971  0.06723599  0.29326429  1
  C  C530  1  0.91993474  0.21125252  0.26567389  1
  C  C531  1  0.90034106  0.19127309  0.15207811  1
  H  H532  1  0.90214081  0.21025966  0.05869278  1
  C  C533  1  0.91528826  0.18763503  0.38998465  1
  C  C534  1  0.89773529  0.13926161  0.39716764  1
  H  H535  1  0.86796974  0.12320033  0.07564013  1
  Cu  Cu536  1  0.80055394  0.17744629  0.34120504  1
  O  O537  1  0.86485491  0.04030698  0.39725855  1
  C  C538  1  0.99199552  0.15839443  0.16093855  1
  O  O539  1  0.96461081  0.04959563  0.12099990  1
  H  H540  1  0.96488313  0.14366967  0.10467167  1
  H  H541  1  0.77248367  0.43699576  0.49835358  1
  H  H542  1  0.98483261  0.16219530  0.26583239  1
  C  C543  1  0.79620578  0.36105072  0.47280280  1
  O  O544  1  0.76131583  0.12217631  0.36122010  1
  H  H545  1  0.85764635  0.48653357  0.19495700  1
  O  O546  1  0.82859566  0.23427993  0.35316840  1
  H  H547  1  0.92939573  0.20642738  0.47832341  1
  C  C548  1  0.89258181  0.44154944  0.48850704  1
  C  C549  1  0.94295639  0.48787589  0.37611650  1
  C  C550  1  0.98500975  0.25380014  0.16822805  1
  H  H551  1  0.88065935  0.36425020  0.43758850  1
  C  C552  1  0.82207957  0.33577232  0.25359003  1
  C  C553  1  0.92934730  0.40034553  0.31507749  1
  C  C554  1  0.94684362  0.25820232  0.23351174  1
  C  C555  1  0.98459487  0.35155186  0.20962842  1
  C  C556  1  0.79819513  0.42447659  0.29468199  1
  H  H557  1  0.89278236  0.29604273  0.32260309  1
  C  C558  1  0.81319625  0.32583482  0.38577569  1
  H  H559  1  0.82134198  0.39400527  0.10736618  1
  C  C560  1  0.95124414  0.44704724  0.28970975  1
  H  H561  1  0.89873347  0.11866083  0.49327337  1
  C  C562  1  0.89662690  0.39857993  0.40976138  1
  C  C563  1  0.81939722  0.27194919  0.42892650  1
  H  H564  1  0.83471028  0.30487274  0.18661551  1
  C  C565  1  0.78850680  0.41129971  0.42692685  1
  C  C566  1  0.99911929  0.30526132  0.14737665  1
  H  H567  1  0.97780369  0.44423506  0.22536006  1
  C  C568  1  0.92502405  0.30049506  0.28424282  1
  C  C569  1  0.81567289  0.38460991  0.21375299  1
  C  C570  1  0.94600799  0.34819903  0.27597609  1
  C  C571  1  0.79198196  0.47733011  0.22735356  1
  C  C572  1  0.75064142  0.49798868  0.21888876  1
  C  C573  1  0.91494373  0.48827225  0.47961539  1
  H  H574  1  0.83827123  0.32287028  0.01069731  1
  O  O575  1  0.90904094  0.04458629  0.00415211  1
  C  C576  1  0.94873505  0.05713579  0.01857657  1
  H  H577  1  0.75638886  0.20284961  0.04042750  1
  O  O578  1  0.83686432  0.10172253  0.77263857  1
  C  C579  1  0.80355844  0.10697341  0.84492130  1
  C  C580  1  0.82501922  0.19832054  0.90104049  1
  C  C581  1  0.84012443  0.05015966  0.70781229  1
  H  H582  1  0.81464656  0.04550105  0.63310076  1
  C  C583  1  0.77237375  0.06998060  0.87096013  1
  C  C584  1  0.77089612  0.01453042  0.81908340  1
  H  H585  1  0.87156642  0.04701763  0.65170840  1
  H  H586  1  0.83861973  0.01794264  0.77811241  1
  C  C587  1  0.86500296  0.19732993  0.84252217  1
  H  H588  1  0.87723320  0.16054097  0.80715574  1
  C  C589  1  0.79566368  0.15460155  0.91575364  1
  C  C590  1  0.96875623  0.08716811  0.90441217  1
  O  O591  1  0.97134953  0.22186987  0.67359785  1
  H  H592  1  0.94992674  0.09709292  0.81843673  1
  C  C593  1  0.95120773  0.01726617  0.57050516  1
  O  O594  1  0.94897641  0.06339523  0.56923055  1
  Cu  Cu595  1  0.77257040  0.20352398  0.55916906  1
  C  C596  1  0.75931536  0.39917035  0.86175189  1
  H  H597  1  0.92453917  0.23067755  0.78293947  1
  O  O598  1  0.75124907  0.42034917  0.96226827  1
  C  C599  1  0.89420391  0.23742788  0.83594021  1
  C  C600  1  0.93162086  0.49811376  0.81621801  1
  H  H601  1  0.89974698  0.48771373  0.84664960  1
  C  C602  1  0.95143663  0.46482909  0.73494520  1
  C  C603  1  0.88345425  0.28248264  0.90010322  1
  C  C604  1  0.98711381  0.25249894  0.60250351  1
  C  C605  1  0.75655577  0.00871664  0.68580234  1
  C  C606  1  0.81586194  0.24815184  0.95854554  1
  Cu  Cu607  1  0.98237431  0.35497195  0.73352411  1
  C  C608  1  0.85983095  0.38275237  0.65690146  1
  O  O609  1  0.97554215  0.30190981  0.60610304  1
  H  H610  1  0.88229685  0.35320777  0.62866115  1
  C  C611  1  0.86372512  0.43423082  0.60691055  1
  C  C612  1  0.80471068  0.46165113  0.74435932  1
  C  C613  1  0.82833102  0.37157338  0.75083809  1
  O  O614  1  0.81073782  0.25813706  0.54151884  1
  C  C615  1  0.91655515  0.32725251  0.90462057  1
  C  C616  1  0.83775979  0.47454912  0.66449714  1
  H  H617  1  0.78593414  0.35048417  0.57396203  1
  O  O618  1  0.95334416  0.31801367  0.86455763  1
  O  O619  1  0.90655352  0.36955058  0.93414347  1
  H  H620  1  0.82671759  0.33326065  0.79794028  1
  H  H621  1  0.93742386  0.42770474  0.70728143  1
  C  C622  1  0.84559969  0.28641861  0.96325896  1
  C  C623  1  0.79947051  0.40966860  0.78232675  1
  H  H624  1  0.78487851  0.49141467  0.78409164  1
  C  C625  1  0.76039347  0.16468030  0.98776229  1
  H  H626  1  0.78392863  0.25783473  0.99263245  1
  C  C627  1  0.99212206  0.47609447  0.69299749  1
  C  C628  1  0.92472342  0.68866845  0.20059336  1
  C  C629  1  0.91077060  0.64795214  0.10387552  1
  H  H630  1  0.85428597  0.65047672  0.22031003  1
  C  C631  1  0.87168738  0.63094803  0.14287645  1
  C  C632  1  0.86043105  0.58439584  0.08332272  1
  C  C633  1  0.82344994  0.55311761  0.13342133  1
  C  C634  1  0.95449806  0.67228711  0.29582728  1
  C  C635  1  0.78370368  0.57881625  0.12568168  1
  H  H636  1  0.77931137  0.61731881  0.07651858  1
  H  H637  1  0.96737045  0.63312564  0.29732465  1
  C  C638  1  0.97063506  0.55125102  0.20130114  1
  H  H639  1  0.94163048  0.54938223  0.14829362  1
  H  H640  1  0.93487286  0.59424513  0.45176092  1
  O  O641  1  0.80091991  0.66373887  0.42762511  1
  C  C642  1  0.97157792  0.71189963  0.37190716  1
  C  C643  1  0.97479970  0.52769483  0.32781193  1
  C  C644  1  0.76514012  0.68713833  0.42113060  1
  H  H645  1  0.78372557  0.58502454  0.38966044  1
  H  H646  1  0.99784106  0.69861991  0.43364588  1
  C  C647  1  0.90594802  0.73952234  0.19978242  1
  H  H648  1  0.88115560  0.85685407  0.06054257  1
  C  C649  1  0.80400157  0.61070570  0.45374440  1
  Cu  Cu650  1  0.87561552  0.99445522  0.09270413  1
  H  H651  1  0.99308471  0.84184320  0.24020420  1
  H  H652  1  0.75680351  0.79644308  0.14909098  1
  H  H653  1  0.98406841  0.69826390  0.12010532  1
  C  C654  1  0.97988309  0.80050615  0.44725474  1
  O  O655  1  0.89110822  0.91736793  0.32407184  1
  C  C656  1  0.82737344  0.50347874  0.18654336  1
  C  C657  1  0.79293233  0.77085300  0.32165194  1
  H  H658  1  0.88060048  0.74663861  0.13170333  1
  C  C659  1  0.83019101  0.77913908  0.40002771  1
  C  C660  1  0.80378841  0.84808421  0.19370968  1
  C  C661  1  0.92620096  0.77836636  0.26916277  1
  H  H662  1  0.79490783  0.87697223  0.11879269  1
  C  C663  1  0.83885294  0.85724291  0.27690009  1
  Cu  Cu664  1  0.89804229  0.98356297  0.38986668  1
  H  H665  1  0.91617347  0.82002076  0.25986108  1
  O  O666  1  0.84587287  0.94157381  0.17805679  1
  C  C667  1  0.85966938  0.90645157  0.25811025  1
  C  C668  1  0.78172918  0.80544425  0.21675706  1
  C  C669  1  0.94460975  0.87844204  0.08257601  1
  C  C670  1  0.75913445  0.73738055  0.36640945  1
  C  C671  1  0.95696733  0.76403466  0.35620821  1
  C  C672  1  0.91025810  0.86373417  0.01308487  1
  H  H673  1  0.94132439  0.88470094  0.19183871  1
  C  C674  1  0.85248391  0.82294273  0.38048635  1
  O  O675  1  0.96931013  0.84644027  0.44693791  1
  H  H676  1  0.87954969  0.83354246  0.44059188  1
  C  C677  1  0.75125297  0.54878709  0.16066489  1
  H  H678  1  0.84002129  0.74953093  0.46536363  1
  H  H679  1  0.83793213  0.60380623  0.43121974  1
  C  C680  1  0.98371702  0.88573002  0.01528940  1
  C  C681  1  0.97751026  0.70716999  0.01764382  1
  C  C682  1  0.93660953  0.62913136  0.00055148  1
  H  H683  1  0.78744111  0.97743607  0.00552645  1
  C  C684  1  0.94744251  0.54631906  0.86087915  1
  O  O685  1  0.96964750  0.65423223  0.95916808  1
  H  H686  1  0.79868179  0.59601663  0.55778711  1
  C  C687  1  0.92404072  0.57925424  0.95857727  1
  H  H688  1  0.84329650  0.51612653  0.64150612  1
  H  H689  1  0.98605493  0.96326143  0.94122438  1
  O  O690  1  0.76175477  0.66939603  0.92983194  1
  O  O691  1  0.77098920  0.72552079  0.77199027  1
  C  C692  1  0.99223564  0.99290227  0.58569594  1
  O  O693  1  0.75747684  0.85913845  0.55291622  1
  H  H694  1  0.87651750  0.51769422  0.97481309  1
  H  H695  1  0.95161776  0.86198911  0.70846439  1
  C  C696  1  0.77731213  0.97294368  0.90312573  1
  H  H697  1  0.96653113  0.55188089  0.55500136  1
  C  C698  1  0.98777749  0.55692781  0.81665021  1
  O  O699  1  0.91865858  0.98814890  0.55277176  1
  C  C700  1  0.75231373  0.95935611  0.63658784  1
  H  H701  1  0.78423957  0.88689129  0.89378743  1
  Cu  Cu702  1  0.80309384  0.78543842  0.80934163  1
  H  H703  1  0.96758184  0.91416632  0.53929494  1
  C  C704  1  0.76303618  0.91810554  0.72026503  1
  O  O705  1  0.84019681  0.83390309  0.85731990  1
  C  C706  1  0.87498298  0.84187064  0.79864525  1
  H  H707  1  0.93589097  0.60012825  0.62447442  1
  C  C708  1  0.88703171  0.55647656  0.99891179  1
  O  O709  1  0.76120262  0.82509765  0.75067536  1
  C  C710  1  0.98464855  0.88291134  0.87674804  1
  C  C711  1  0.91171506  0.85884424  0.87625625  1
  C  C712  1  0.77379040  0.92264168  0.84990206  1
  C  C713  1  0.95005597  0.86542619  0.81419389  1
  C  C714  1  0.76128605  0.86354087  0.66861509  1
  O  O715  1  0.88051608  0.83510499  0.68381881  1
  C  C716  1  0.99510612  0.93885826  0.56415880  1
  O  O717  1  0.90803761  0.52909763  0.56152642  1
  H  H718  1  0.95415214  0.73837849  0.99556603  1
  C  C719  1  0.93504758  0.57086109  0.54748795  1
