# generated using pymatgen
data_CuH13C21O5
_symmetry_space_group_name_H-M   'P 1'
_cell_length_a   33.92121078
_cell_length_b   30.50667480
_cell_length_c   9.08604432
_cell_angle_alpha   90.00000000
_cell_angle_beta   90.00000000
_cell_angle_gamma   90.00000000
_symmetry_Int_Tables_number   1
_chemical_formula_structural   CuH13C21O5
_chemical_formula_sum   'Cu18 H234 C378 O90'
_cell_volume   9402.45078115
_cell_formula_units_Z   18
loop_
 _symmetry_equiv_pos_site_id
 _symmetry_equiv_pos_as_xyz
  1  'x, y, z'
loop_
 _atom_site_type_symbol
 _atom_site_label
 _atom_site_symmetry_multiplicity
 _atom_site_fract_x
 _atom_site_fract_y
 _atom_site_fract_z
 _atom_site_occupancy
  O  O0  1  0.12787411  0.17933143  0.16851368  1
  C  C1  1  0.13325437  0.18502505  0.31015589  1
  C  C2  1  0.16458436  0.21801360  0.34674355  1
  O  O3  1  0.11305920  0.16976397  0.40357655  1
  H  H4  1  0.05400837  0.22164841  0.44013597  1
  H  H5  1  0.18355754  0.22828739  0.11367725  1
  C  C6  1  0.18681462  0.23759449  0.23287771  1
  O  O7  1  0.06122273  0.23439302  0.16803001  1
  Cu  Cu8  1  0.10075998  0.21125690  0.03975484  1
  H  H9  1  0.10258055  0.00951657  0.39869368  1
  C  C10  1  0.16785117  0.22825566  0.49989060  1
  H  H11  1  0.21828861  0.49624712  0.28430479  1
  C  C12  1  0.05063079  0.25615518  0.46039423  1
  H  H13  1  0.23509756  0.28183517  0.18890665  1
  C  C14  1  0.02031888  0.44912341  0.41016106  1
  O  O15  1  0.07053996  0.29985989  0.09057342  1
  H  H16  1  0.04814712  0.35915737  0.29119360  1
  C  C17  1  0.23597227  0.48428048  0.05504996  1
  C  C18  1  0.04850115  0.33376961  0.37937345  1
  C  C19  1  0.04604073  0.44671418  0.29360804  1
  H  H20  1  0.10469484  0.44815191  0.21688521  1
  C  C21  1  0.23471928  0.39822589  0.46340386  1
  C  C22  1  0.21831986  0.35600597  0.46318015  1
  H  H23  1  0.18670853  0.34820271  0.47237046  1
  C  C24  1  0.20778763  0.43792717  0.49742857  1
  C  C25  1  0.20937297  0.49409412  0.17098857  1
  H  H26  1  0.15308129  0.40520798  0.46140388  1
  C  C27  1  0.16682894  0.43715547  0.47655757  1
  C  C28  1  0.14309445  0.47541650  0.48443280  1
  C  C29  1  0.06136543  0.27493044  0.19593179  1
  C  C30  1  0.21447587  0.26884929  0.27097887  1
  H  H31  1  0.03242807  0.44309978  0.18301559  1
  C  C32  1  0.08663247  0.45241475  0.31366441  1
  C  C33  1  0.24385132  0.32170030  0.43586958  1
  C  C34  1  0.21728536  0.28161209  0.42218404  1
  C  C35  1  0.10074398  0.46253987  0.45730957  1
  C  C36  1  0.05310666  0.28921140  0.34973995  1
  C  C37  1  0.00583461  0.39147181  0.02910413  1
  C  C38  1  0.15344301  0.49518054  0.00780721  1
  O  O39  1  0.14108405  0.20400708  0.90454250  1
  H  H40  1  0.14747840  0.21137240  0.58282776  1
  C  C41  1  0.20643421  0.22202286  0.92074346  1
  C  C42  1  0.02398205  0.13595865  0.63811803  1
  C  C43  1  0.16649958  0.23467704  0.88925558  1
  C  C44  1  0.05456680  0.10678946  0.57933440  1
  O  O45  1  0.00023908  0.16074118  0.67795116  1
  H  H46  1  0.01948190  0.00243610  0.56210238  1
  C  C47  1  0.05103949  0.06304066  0.55194678  1
  C  C48  1  0.21742197  0.17975507  0.97707363  1
  H  H49  1  0.19528078  0.15366794  0.96475981  1
  C  C50  1  0.04748477  0.01876764  0.52681046  1
  H  H51  1  0.04068853  0.24709181  0.68837944  1
  H  H52  1  0.08274461  0.12350302  0.54027896  1
  Cu  Cu53  1  0.11262711  0.28782402  0.97782851  1
  C  C54  1  0.23473191  0.25507818  0.90248470  1
  C  C55  1  0.07478628  0.46517501  0.58302413  1
  H  H56  1  0.11383388  0.42859484  0.96411788  1
  C  C57  1  0.05328739  0.45399387  0.92715425  1
  C  C58  1  0.03402157  0.40811321  0.92871194  1
  C  C59  1  0.09437848  0.45829781  0.95433812  1
  C  C60  1  0.04574386  0.34920590  0.52489782  1
  C  C61  1  0.03338911  0.33962234  0.78552330  1
  C  C62  1  0.22180378  0.48182738  0.90789326  1
  C  C63  1  0.19561513  0.25907819  0.53497256  1
  C  C64  1  0.00871911  0.31612618  0.88823139  1
  C  C65  1  0.03012271  0.49226542  0.91098432  1
  H  H66  1  0.01461632  0.46041072  0.64852185  1
  H  H67  1  0.24122637  0.47537806  0.80723227  1
  O  O68  1  0.15275045  0.27335731  0.86759995  1
  C  C69  1  0.04557808  0.27225719  0.60589182  1
  C  C70  1  0.22369837  0.47943113  0.51915968  1
  H  H71  1  0.22616929  0.28630614  0.84606053  1
  H  H72  1  0.19653311  0.27509272  0.64383307  1
  C  C73  1  0.04578298  0.38265971  0.80728336  1
  H  H74  1  0.16951617  0.48423974  0.77377125  1
  C  C75  1  0.18090332  0.48511000  0.89112269  1
  H  H76  1  0.04062061  0.38410131  0.54220183  1
  H  H77  1  0.08505085  0.47170676  0.69519215  1
  C  C78  1  0.04429548  0.31848288  0.64517929  1
  H  H79  1  0.06572124  0.39935239  0.73287038  1
  C  C80  1  0.03575599  0.45938841  0.55702365  1
  H  H81  1  0.21512109  0.56528797  0.31110449  1
  H  H82  1  0.19209661  0.62158970  0.16168168  1
  C  C83  1  0.22672242  0.58191945  0.41153702  1
  H  H84  1  0.08241481  0.52969321  0.41486333  1
  C  C85  1  0.18801884  0.65127823  0.09229642  1
  H  H86  1  0.12592720  0.66744724  0.13478154  1
  C  C87  1  0.11009678  0.67767583  0.42228787  1
  H  H88  1  0.08634216  0.65325244  0.39389291  1
  C  C89  1  0.15391928  0.67625172  0.07608531  1
  C  C90  1  0.10347292  0.72279746  0.45108646  1
  C  C91  1  0.06166441  0.73471276  0.39898128  1
  H  H92  1  0.15095440  0.51268344  0.23947106  1
  C  C93  1  0.14838636  0.66922904  0.46164575  1
  H  H94  1  0.08277415  0.58747519  0.47693483  1
  C  C95  1  0.05158802  0.74755293  0.25334656  1
  C  C96  1  0.22085347  0.66956362  0.01899060  1
  C  C97  1  0.16855346  0.50215283  0.15129961  1
  C  C98  1  0.15427204  0.71835843  0.00302121  1
  H  H99  1  0.07343608  0.74678230  0.16637909  1
  H  H100  1  0.16549767  0.57221324  0.01081234  1
  C  C101  1  0.09087001  0.81461275  0.47654542  1
  C  C102  1  0.16844096  0.90019251  0.28796393  1
  C  C103  1  0.15761734  0.86717537  0.19187846  1
  C  C104  1  0.01149446  0.75564576  0.22196401  1
  H  H105  1  0.15729092  0.77597473  0.14673438  1
  H  H106  1  0.08226834  0.80381387  0.36397838  1
  H  H107  1  0.08784426  0.85104924  0.47774572  1
  C  C108  1  0.08999284  0.88839651  0.24934748  1
  C  C109  1  0.07135013  0.94716011  0.42331597  1
  C  C110  1  0.21335035  0.90015275  0.30608307  1
  H  H111  1  0.00258522  0.76469180  0.10886914  1
  C  C112  1  0.10632291  0.82138322  0.07524198  1
  C  C113  1  0.14379248  0.92885754  0.37630995  1
  H  H114  1  0.19533202  0.83465253  0.41401236  1
  H  H115  1  0.05927852  0.88598681  0.23144912  1
  C  C116  1  0.13016225  0.78215892  0.07904644  1
  C  C117  1  0.07666019  0.99154539  0.44850257  1
  H  H118  1  0.18097199  0.84540922  0.14296682  1
  H  H119  1  0.23406664  0.95871809  0.20512414  1
  O  O120  1  0.02086422  0.88919480  0.46739605  1
  C  C121  1  0.11564913  0.86030927  0.17590182  1
  C  C122  1  0.21989727  0.85919280  0.37970680  1
  H  H123  1  0.20780286  0.97912137  0.40526988  1
  C  C124  1  0.24329752  0.92872099  0.26406887  1
  C  C125  1  0.03329806  0.92643505  0.46728618  1
  O  O126  1  0.15314614  0.95880198  0.47812237  1
  C  C127  1  0.10330261  0.92043681  0.34831990  1
  H  H128  1  0.04736332  0.84223133  0.01016625  1
  C  C129  1  0.04999317  0.53319910  0.89410507  1
  C  C130  1  0.02063351  0.56937255  0.85958341  1
  C  C131  1  0.10943132  0.67255369  0.81043053  1
  O  O132  1  0.07965392  0.70569695  0.81420960  1
  C  C133  1  0.09143419  0.54111101  0.91595950  1
  O  O134  1  0.11048475  0.57800215  0.89030235  1
  C  C135  1  0.15339373  0.57864575  0.89840227  1
  H  H136  1  0.13975510  0.68654373  0.79403375  1
  H  H137  1  0.10495910  0.64544496  0.72682046  1
  H  H138  1  0.16882817  0.55246857  0.83218427  1
  C  C139  1  0.22154952  0.70818017  0.93295340  1
  H  H140  1  0.11328541  0.65318526  0.91299091  1
  H  H141  1  0.16670697  0.60897376  0.85015647  1
  C  C142  1  0.18729014  0.73445978  0.92396723  1
  C  C143  1  0.03140515  0.60542708  0.76672966  1
  H  H144  1  0.06159712  0.61009218  0.73248314  1
  H  H145  1  0.23400936  0.56275897  0.79660282  1
  C  C146  1  0.23893361  0.57594473  0.67510858  1
  H  H147  1  0.04527866  0.72978702  0.63475931  1
  H  H148  1  0.24757027  0.71738488  0.53667105  1
  C  C149  1  0.08570014  0.74211387  0.89411512  1
  H  H150  1  0.20927445  0.66979641  0.55017459  1
  C  C151  1  0.11079715  0.50101038  0.95900905  1
  C  C152  1  0.16989766  0.73389643  0.54906578  1
  H  H153  1  0.08099610  0.54134295  0.60624390  1
  C  C154  1  0.18152532  0.68904191  0.51946787  1
  H  H155  1  0.00513642  0.65075083  0.59842806  1
  H  H156  1  0.01358327  0.71513024  0.91522946  1
  C  C157  1  0.22076209  0.55897561  0.54332182  1
  C  C158  1  0.00101733  0.62773128  0.69844263  1
  C  C159  1  0.19763412  0.51611602  0.52178180  1
  C  C160  1  0.03481401  0.73546080  0.51807613  1
  C  C161  1  0.24277371  0.74692183  0.60153390  1
  H  H162  1  0.24837726  0.71587581  0.86736901  1
  C  C163  1  0.11831456  0.74815422  0.98649839  1
  C  C164  1  0.15664212  0.51869666  0.50427953  1
  C  C165  1  0.09407251  0.55394294  0.50096518  1
  O  O166  1  0.13507275  0.55716014  0.50851100  1
  H  H167  1  0.00723485  0.94399621  0.51713634  1
  C  C168  1  0.19351050  0.96677719  0.50772246  1
  H  H169  1  0.18671647  0.76475905  0.86176882  1
  H  H170  1  0.20413504  0.98907033  0.59437859  1
  C  C171  1  0.06243247  0.78193508  0.90145977  1
  H  H172  1  0.20530454  0.93332234  0.53700523  1
  C  C173  1  0.06943663  0.81727164  0.99781824  1
  C  C174  1  0.19690382  0.80398612  0.67942950  1
  H  H175  1  0.22719176  0.85998265  0.77631787  1
  C  C176  1  0.00469594  0.81611811  0.75136748  1
  H  H177  1  0.16773540  0.81880813  0.68818205  1
  H  H178  1  0.02362699  0.84428120  0.72063303  1
  C  C179  1  0.23053752  0.82816991  0.72386158  1
  C  C180  1  0.02249456  0.78112501  0.83107560  1
  C  C181  1  0.20200251  0.76169796  0.61030141  1
  C  C182  1  0.13283492  0.75116617  0.50320089  1
  O  O183  1  0.12914490  0.79518484  0.51257930  1
  H  H184  1  0.06680482  0.79998807  0.55598999  1
  C  C185  1  0.42981302  0.22490950  0.13704045  1
  C  C186  1  0.35435939  0.22235154  0.06649243  1
  C  C187  1  0.38870131  0.20766679  0.13914177  1
  C  C188  1  0.35612072  0.15083690  0.23565480  1
  C  C189  1  0.39241498  0.17004178  0.23980465  1
  H  H190  1  0.41896992  0.15738275  0.29671645  1
  H  H191  1  0.29080423  0.13443154  0.21259028  1
  C  C192  1  0.45338594  0.22755815  0.00620151  1
  C  C193  1  0.31891974  0.15600468  0.18462548  1
  C  C194  1  0.32062422  0.19676453  0.10019954  1
  C  C195  1  0.44657727  0.23577299  0.27975445  1
  H  H196  1  0.43038725  0.23098664  0.38359178  1
  H  H197  1  0.27393673  0.24394022  0.27170219  1
  C  C198  1  0.28370109  0.20831357  0.02691844  1
  C  C199  1  0.29262466  0.24635056  0.37111768  1
  H  H200  1  0.31807687  0.22506999  0.35835310  1
  H  H201  1  0.43934387  0.06218947  0.41959186  1
  H  H202  1  0.27389726  0.23521767  0.46360238  1
  H  H203  1  0.26229832  0.14038630  0.07567925  1
  C  C204  1  0.25443349  0.17399277  0.03703720  1
  C  C205  1  0.49134169  0.24192113  0.01777667  1
  C  C206  1  0.48570157  0.25052119  0.29450108  1
  C  C207  1  0.40006283  0.42233383  0.44128616  1
  C  C208  1  0.28567010  0.32422467  0.40905068  1
  H  H209  1  0.35525511  0.31349014  0.26604162  1
  O  O210  1  0.30934096  0.29200382  0.38775051  1
  C  C211  1  0.42397959  0.38749014  0.38581468  1
  O  O212  1  0.48591308  0.35978543  0.34809461  1
  O  O213  1  0.28905640  0.47733732  0.22112973  1
  C  C214  1  0.30011568  0.36861918  0.40920885  1
  H  H215  1  0.28584346  0.43847090  0.43592488  1
  C  C216  1  0.40944812  0.35023493  0.31158273  1
  C  C217  1  0.34304089  0.37462910  0.38010638  1
  H  H218  1  0.49874544  0.25772727  0.40271223  1
  C  C219  1  0.27551335  0.40455038  0.44598094  1
  H  H220  1  0.42981253  0.32767416  0.25319777  1
  C  C221  1  0.46744108  0.39058478  0.39416102  1
  C  C222  1  0.27718753  0.47621474  0.09904611  1
  C  C223  1  0.36974944  0.34300033  0.31562960  1
  H  H224  1  0.39863337  0.29628557  0.08227828  1
  C  C225  1  0.35998764  0.41397625  0.44181060  1
  H  H226  1  0.34027293  0.44040642  0.49325687  1
  O  O227  1  0.48440632  0.42517435  0.45449797  1
  H  H228  1  0.46382519  0.37699061  0.00019972  1
  H  H229  1  0.41071046  0.45289333  0.49118698  1
  O  O230  1  0.41842277  0.43954361  0.02624297  1
  C  C231  1  0.44544913  0.19225161  0.59791256  1
  C  C232  1  0.41235813  0.15951102  0.57448103  1
  C  C233  1  0.43143424  0.23351904  0.63235544  1
  O  O234  1  0.38587834  0.22855639  0.63243558  1
  H  H235  1  0.44146266  0.22168790  0.90079753  1
  C  C236  1  0.37976737  0.18850797  0.60240183  1
  H  H237  1  0.34900862  0.17808984  0.60464295  1
  C  C238  1  0.41173563  0.04104629  0.62655540  1
  C  C239  1  0.41463203  0.11534375  0.54372925  1
  C  C240  1  0.48562322  0.18334568  0.60100552  1
  H  H241  1  0.39697223  0.05097300  0.72247923  1
  C  C242  1  0.42145543  0.07225697  0.50895473  1
  H  H243  1  0.49602800  0.14977418  0.59642547  1
  C  C244  1  0.42965560  0.00262133  0.62366807  1
  C  C245  1  0.27245601  0.24765195  0.95166483  1
  Cu  Cu246  1  0.34596983  0.49599451  0.94441438  1
  H  H247  1  0.25649268  0.48506117  0.54053990  1
  C  C248  1  0.49767215  0.26072136  0.66559115  1
  C  C249  1  0.45888751  0.32722158  0.83770893  1
  H  H250  1  0.48718044  0.31323598  0.88064146  1
  C  C251  1  0.43794721  0.31102788  0.71513910  1
  H  H252  1  0.29431066  0.27283338  0.92643475  1
  H  H253  1  0.36341142  0.38807769  0.69589017  1
  C  C254  1  0.39877098  0.42500755  0.92559159  1
  C  C255  1  0.41196370  0.38472515  0.85066398  1
  H  H256  1  0.38547869  0.31771197  0.57038722  1
  C  C257  1  0.44690583  0.36614604  0.90412148  1
  C  C258  1  0.45569143  0.26910211  0.66237146  1
  O  O259  1  0.36762688  0.44742907  0.86923343  1
  O  O260  1  0.30113299  0.47033145  0.98583036  1
  C  C261  1  0.38914147  0.36851140  0.73050378  1
  C  C262  1  0.40101112  0.33064972  0.66542475  1
  H  H263  1  0.40426927  0.27317188  0.90230919  1
  O  O264  1  0.35051740  0.25951312  0.98625063  1
  C  C265  1  0.38323024  0.29017417  0.97939550  1
  H  H266  1  0.37703688  0.32382603  0.93586862  1
  H  H267  1  0.43515597  0.65042076  0.26111429  1
  C  C268  1  0.45889195  0.65838441  0.34408230  1
  O  O269  1  0.38548541  0.72755280  0.18674822  1
  Cu  Cu270  1  0.34846936  0.70492414  0.30867245  1
  C  C271  1  0.47487847  0.58015321  0.06540299  1
  H  H272  1  0.41457688  0.56035944  0.11681468  1
  C  C273  1  0.40709163  0.70437878  0.10782563  1
  C  C274  1  0.44732356  0.71593298  0.06972697  1
  O  O275  1  0.37984591  0.66536061  0.42187315  1
  H  H276  1  0.48536738  0.57073759  0.17444042  1
  O  O277  1  0.39430895  0.66776901  0.05569719  1
  C  C278  1  0.43445329  0.57268298  0.03523539  1
  C  C279  1  0.49796313  0.64655765  0.32484751  1
  O  O280  1  0.30092193  0.69091746  0.40111006  1
  H  H281  1  0.49892500  0.58212267  0.44725810  1
  Cu  Cu282  1  0.34134803  0.66497506  0.01561726  1
  C  C283  1  0.25997478  0.64446346  0.01478139  1
  O  O284  1  0.26537640  0.60922123  0.07483239  1
  H  H285  1  0.25767319  0.63655135  0.29784612  1
  C  C286  1  0.44760195  0.66985260  0.49064333  1
  H  H287  1  0.47174548  0.74763468  0.47155581  1
  C  C288  1  0.25030633  0.61950358  0.40279873  1
  O  O289  1  0.33576108  0.82547762  0.43289474  1
  C  C290  1  0.46619437  0.75380674  0.12743647  1
  C  C291  1  0.44753237  0.83546239  0.42020847  1
  C  C292  1  0.33059212  0.86180382  0.37186161  1
  O  O293  1  0.44199784  0.87495096  0.39638075  1
  H  H294  1  0.45173273  0.77533059  0.20673174  1
  C  C295  1  0.28961700  0.87660477  0.35216579  1
  C  C296  1  0.48645820  0.81583689  0.40244512  1
  C  C297  1  0.25842169  0.84686594  0.39903480  1
  C  C298  1  0.49407766  0.77143949  0.43325777  1
  O  O299  1  0.35836933  0.88865480  0.35116710  1
  C  C300  1  0.28249191  0.91792141  0.28880733  1
  H  H301  1  0.26429437  0.81461044  0.44674692  1
  H  H302  1  0.30562552  0.93838891  0.24498236  1
  Cu  Cu303  1  0.39538381  0.90171392  0.49145502  1
  O  O304  1  0.42017785  0.80847456  0.45895227  1
  H  H305  1  0.44308150  0.59880335  0.65955394  1
  C  C306  1  0.44969734  0.59542619  0.77855166  1
  Cu  Cu307  1  0.35232692  0.65038424  0.73252185  1
  C  C308  1  0.42283541  0.58068947  0.88682087  1
  O  O309  1  0.39343974  0.68082363  0.65110372  1
  H  H310  1  0.46595756  0.69854538  0.70701684  1
  C  C311  1  0.47475675  0.68177948  0.60117439  1
  O  O312  1  0.31190068  0.68462855  0.63927680  1
  C  C313  1  0.38066180  0.57461529  0.85249835  1
  O  O314  1  0.36883845  0.59115983  0.73457587  1
  H  H315  1  0.27563363  0.62803560  0.76596864  1
  O  O316  1  0.35846145  0.55596035  0.94596540  1
  C  C317  1  0.29687429  0.67160664  0.52035160  1
  C  C318  1  0.26921039  0.63529755  0.52802141  1
  C  C319  1  0.48954333  0.60515957  0.80760228  1
  C  C320  1  0.26054624  0.61362227  0.66597646  1
  H  H321  1  0.45130893  0.65727585  0.92117723  1
  C  C322  1  0.40498200  0.67336843  0.51660367  1
  C  C323  1  0.46538511  0.68889202  0.96088672  1
  O  O324  1  0.29073566  0.66512765  0.96341607  1
  H  H325  1  0.49810783  0.51101565  0.93958498  1
  H  H326  1  0.49473576  0.94438218  0.70241913  1
  O  O327  1  0.30422906  0.87808253  0.78694729  1
  O  O328  1  0.49088118  0.97765205  0.67851374  1
  C  C329  1  0.26916261  0.81213821  0.71315163  1
  Cu  Cu330  1  0.37408525  0.81590202  0.59082237  1
  C  C331  1  0.27479821  0.76969114  0.66051425  1
  C  C332  1  0.30516260  0.84119337  0.74638623  1
  O  O333  1  0.33738849  0.81797955  0.73360983  1
  H  H334  1  0.30579290  0.76044485  0.64863827  1
  O  O335  1  0.42781217  0.92852752  0.62368762  1
  C  C336  1  0.44410848  0.96767308  0.62140430  1
  C  C337  1  0.56936951  0.13710561  0.23656784  1
  C  C338  1  0.56862323  0.09204969  0.25449591  1
  C  C339  1  0.67264577  0.18631933  0.17614768  1
  C  C340  1  0.70674374  0.09641761  0.27969278  1
  C  C341  1  0.66281162  0.05189155  0.13080521  1
  O  O342  1  0.68069651  0.09313676  0.17072592  1
  H  H343  1  0.56228317  0.15966527  0.33178763  1
  H  H344  1  0.64644003  0.16124901  0.16326368  1
  C  C345  1  0.71089971  0.17774957  0.23911077  1
  H  H346  1  0.63976431  0.04405610  0.21087438  1
  C  C347  1  0.72363123  0.13767467  0.31801729  1
  H  H348  1  0.57395883  0.18784622  0.07090964  1
  C  C349  1  0.57495434  0.15305574  0.09536938  1
  C  C350  1  0.66654504  0.22675345  0.10888121  1
  H  H351  1  0.68864098  0.02784790  0.14404748  1
  H  H352  1  0.57488743  0.02553200  0.16699941  1
  C  C353  1  0.57517160  0.05975410  0.13982745  1
  C  C354  1  0.70921458  0.01552856  0.37674135  1
  C  C355  1  0.72275945  0.06381294  0.37411358  1
  C  C356  1  0.56175339  0.07135198  0.40282688  1
  H  H357  1  0.65453935  0.22750052  0.38919961  1
  H  H358  1  0.63921567  0.23614015  0.05512933  1
  O  O359  1  0.55996923  0.02771267  0.41940726  1
  H  H360  1  0.65033608  0.05008653  0.01752387  1
  C  C361  1  0.67177833  0.00446419  0.44617029  1
  C  C362  1  0.74305273  0.20954571  0.23620243  1
  C  C363  1  0.67007246  0.23866717  0.48773922  1
  C  C364  1  0.60273459  0.44248111  0.16293752  1
  O  O365  1  0.71188805  0.33005207  0.05414220  1
  C  C366  1  0.69738039  0.25857040  0.10909504  1
  C  C367  1  0.50678051  0.25036030  0.15981548  1
  H  H368  1  0.70614579  0.28271146  0.37852265  1
  O  O369  1  0.57049880  0.26011724  0.02502015  1
  O  O370  1  0.56832530  0.26137520  0.26616929  1
  H  H371  1  0.50285597  0.44297447  0.07460883  1
  C  C372  1  0.53087501  0.45504045  0.12784231  1
  H  H373  1  0.63549774  0.49457167  0.26524780  1
  H  H374  1  0.54802017  0.41388240  0.37198400  1
  C  C375  1  0.69962484  0.26863072  0.48178940  1
  C  C376  1  0.73533843  0.25007987  0.17314526  1
  C  C377  1  0.68661555  0.29916403  0.02985598  1
  C  C378  1  0.55116982  0.25662985  0.15231437  1
  H  H379  1  0.62820415  0.41965046  0.15638542  1
  C  C380  1  0.53422472  0.49386699  0.20303910  1
  C  C381  1  0.56484737  0.43074770  0.11162788  1
  C  C382  1  0.60729488  0.48429775  0.21625842  1
  C  C383  1  0.56371140  0.38983848  0.02268800  1
  C  C384  1  0.53323221  0.41715277  0.47586749  1
  C  C385  1  0.62444293  0.15915778  0.77752279  1
  C  C386  1  0.55162227  0.17360735  0.79422299  1
  C  C387  1  0.55353868  0.20454741  0.67675548  1
  C  C388  1  0.58712540  0.15466440  0.84623028  1
  C  C389  1  0.62215612  0.19439166  0.67395534  1
  C  C390  1  0.59099771  0.22115524  0.62829085  1
  C  C391  1  0.68808893  0.13317803  0.70103870  1
  O  O392  1  0.65662241  0.13126359  0.79872979  1
  C  C393  1  0.65962914  0.21832961  0.62512273  1
  H  H394  1  0.67411765  0.21115618  0.86050469  1
  H  H395  1  0.68068746  0.11833513  0.59194723  1
  H  H396  1  0.70284617  0.16560142  0.66874985  1
  H  H397  1  0.71581640  0.11506770  0.73076712  1
  C  C398  1  0.68109174  0.22640702  0.75453646  1
  H  H399  1  0.58393205  0.05485778  0.89854183  1
  H  H400  1  0.52280186  0.16667705  0.85269950  1
  C  C401  1  0.51126801  0.21799411  0.64471690  1
  H  H402  1  0.59474600  0.24919687  0.55823296  1
  Cu  Cu403  1  0.52721128  0.00168876  0.55122922  1
  C  C404  1  0.72524662  0.01458028  0.94752790  1
  H  H405  1  0.74915802  0.07842152  0.97163842  1
  C  C406  1  0.58034538  0.07688138  0.99871511  1
  C  C407  1  0.58119214  0.12314585  0.98077183  1
  H  H408  1  0.65606502  0.02837977  0.51442748  1
  H  H409  1  0.51146266  0.24505128  0.92138806  1
  O  O410  1  0.55414873  0.09304269  0.50819465  1
  O  O411  1  0.59776270  0.36847548  0.99382283  1
  O  O412  1  0.53296327  0.37496883  0.98413422  1
  Cu  Cu413  1  0.60220561  0.31069304  0.98937255  1
  O  O414  1  0.54725036  0.45058875  0.55275981  1
  H  H415  1  0.51858504  0.28632045  0.68678483  1
  C  C416  1  0.65260619  0.49916640  0.59122326  1
  H  H417  1  0.67063953  0.46976848  0.56926817  1
  H  H418  1  0.52310525  0.48351065  0.78500214  1
  H  H419  1  0.73100632  0.25978211  0.84529480  1
  C  C420  1  0.71303794  0.25410201  0.74814700  1
  Cu  Cu421  1  0.74337065  0.35609642  0.90523605  1
  C  C422  1  0.73705706  0.44619376  0.96245458  1
  O  O423  1  0.65682492  0.30454662  0.95304709  1
  C  C424  1  0.70562178  0.47691116  0.97873055  1
  H  H425  1  0.66591208  0.44143082  0.82754527  1
  H  H426  1  0.53196334  0.38116314  0.51598753  1
  O  O427  1  0.73414940  0.41743542  0.86610973  1
  C  C428  1  0.59263680  0.44987635  0.55224997  1
  C  C429  1  0.72068824  0.27698962  0.61519371  1
  H  H430  1  0.61513030  0.49390287  0.81636552  1
  C  C431  1  0.67010352  0.46834271  0.90065518  1
  C  C432  1  0.61136406  0.49254516  0.58184725  1
  C  C433  1  0.64029311  0.49823929  0.89608703  1
  O  O434  1  0.61040575  0.41855648  0.51465329  1
  C  C435  1  0.61034654  0.68726646  0.14046524  1
  H  H436  1  0.54904664  0.70800744  0.21018533  1
  C  C437  1  0.58246882  0.71570089  0.20717905  1
  C  C438  1  0.58210263  0.55292966  0.30935295  1
  C  C439  1  0.62007389  0.56761076  0.32735115  1
  H  H440  1  0.64631329  0.54683051  0.29578148  1
  C  C441  1  0.62885823  0.60956325  0.38354198  1
  C  C442  1  0.59718541  0.64377409  0.08512542  1
  C  C443  1  0.64959565  0.70284034  0.12981264  1
  H  H444  1  0.67152209  0.68288093  0.07294030  1
  C  C445  1  0.70287832  0.58800196  0.38899622  1
  H  H446  1  0.69628619  0.55475394  0.34659083  1
  C  C447  1  0.67829370  0.54469639  0.06215183  1
  H  H448  1  0.73316384  0.71206589  0.29637749  1
  C  C449  1  0.62642417  0.61089323  0.05064622  1
  H  H450  1  0.68115102  0.57529268  0.13210070  1
  H  H451  1  0.65874828  0.61511388  0.08233120  1
  H  H452  1  0.72771345  0.64119470  0.19382956  1
  C  C453  1  0.54953989  0.57776213  0.37405897  1
  C  C454  1  0.67273870  0.62117363  0.40065332  1
  C  C455  1  0.56103164  0.62100903  0.41305647  1
  C  C456  1  0.59864692  0.63954617  0.41218615  1
  H  H457  1  0.53766285  0.71969476  0.41948064  1
  C  C458  1  0.55658991  0.63950419  0.06403616  1
  H  H459  1  0.53572671  0.66540415  0.09460223  1
  C  C460  1  0.74045738  0.59849081  0.44082031  1
  O  O461  1  0.51220371  0.55966604  0.38192385  1
  C  C462  1  0.57322845  0.51007240  0.24236362  1
  H  H463  1  0.66255789  0.69071638  0.44636667  1
  C  C464  1  0.68414313  0.66437833  0.44628641  1
  C  C465  1  0.52531233  0.65114901  0.44601426  1
  H  H466  1  0.60425761  0.67413798  0.44517799  1
  H  H467  1  0.73535660  0.51936049  0.14071459  1
  C  C468  1  0.73733121  0.74000044  0.21760413  1
  C  C469  1  0.70875216  0.51437349  0.07057547  1
  C  C470  1  0.65974419  0.74352261  0.18398117  1
  H  H471  1  0.50949878  0.63312735  0.21712542  1
  H  H472  1  0.50736084  0.51369100  0.21946043  1
  C  C473  1  0.72356415  0.66982567  0.49338664  1
  C  C474  1  0.74937078  0.65310196  0.11592161  1
  C  C475  1  0.50086822  0.76565544  0.06661667  1
  H  H476  1  0.62526176  0.95410940  0.46199895  1
  C  C477  1  0.68643904  0.81899248  0.34054862  1
  C  C478  1  0.52996645  0.75442686  0.39361829  1
  C  C479  1  0.63336141  0.76991604  0.26887099  1
  C  C480  1  0.59294058  0.75538630  0.26172422  1
  C  C481  1  0.55496050  0.82829935  0.32864701  1
  H  H482  1  0.69441640  0.83492054  0.23345927  1
  C  C483  1  0.56045789  0.78195146  0.33673206  1
  C  C484  1  0.65331073  0.96474766  0.41195506  1
  H  H485  1  0.51802935  0.79397960  0.10179865  1
  C  C486  1  0.70260665  0.75495922  0.14154363  1
  C  C487  1  0.73026385  0.98632926  0.27986580  1
  H  H488  1  0.58132579  0.88738847  0.02354396  1
  C  C489  1  0.64167251  0.86526325  0.00323184  1
  C  C490  1  0.70560598  0.78673495  0.03252546  1
  H  H491  1  0.57846586  0.85016523  0.28946439  1
  C  C492  1  0.64637442  0.90936733  0.21863008  1
  C  C493  1  0.67077507  0.94196501  0.28799780  1
  O  O494  1  0.66301947  0.89342967  0.06560636  1
  O  O495  1  0.61775199  0.89444710  0.27081640  1
  H  H496  1  0.62426633  0.84692927  0.09047322  1
  H  H497  1  0.69848179  0.84360887  0.41908435  1
  H  H498  1  0.71874161  0.92862579  0.13742268  1
  H  H499  1  0.70499492  0.78934638  0.34784908  1
  O  O500  1  0.64410002  0.80581524  0.33410998  1
  C  C501  1  0.51664296  0.84518978  0.35158762  1
  C  C502  1  0.70817287  0.95025246  0.22431057  1
  H  H503  1  0.50584377  0.87974254  0.35029934  1
  H  H504  1  0.65076197  0.87422434  0.49622864  1
  H  H505  1  0.60839403  0.65175027  0.66821381  1
  C  C506  1  0.60091906  0.56752943  0.65282525  1
  C  C507  1  0.64243270  0.57402884  0.66526552  1
  C  C508  1  0.63665558  0.65249987  0.72285657  1
  C  C509  1  0.65903552  0.61379725  0.73528398  1
  C  C510  1  0.66874024  0.53807933  0.62622125  1
  H  H511  1  0.57938507  0.59343582  0.69102653  1
  C  C512  1  0.69658187  0.61252820  0.80322965  1
  C  C513  1  0.70690033  0.65400799  0.86653800  1
  H  H514  1  0.70126709  0.54155163  0.62849690  1
  C  C515  1  0.58502581  0.52808324  0.60341752  1
  C  C516  1  0.64853151  0.69170621  0.78642759  1
  C  C517  1  0.68513981  0.69403273  0.85795733  1
  H  H518  1  0.57197219  0.68508990  0.87133754  1
  O  O519  1  0.71953190  0.57754709  0.80616565  1
  H  H520  1  0.53909521  0.68328955  0.65741954  1
  C  C521  1  0.58130376  0.71906093  0.85320106  1
  H  H522  1  0.55325274  0.52352254  0.58313090  1
  C  C523  1  0.61866500  0.72948846  0.79456030  1
  H  H524  1  0.51794081  0.67838977  0.83196168  1
  H  H525  1  0.69858479  0.72342803  0.90955798  1
  H  H526  1  0.50889835  0.62044980  0.72041433  1
  C  C527  1  0.73634153  0.71493252  0.54272616  1
  C  C528  1  0.51465856  0.67457626  0.57657995  1
  H  H529  1  0.67792176  0.73152690  0.60436358  1
  O  O530  1  0.56062726  0.52704365  0.89372174  1
  C  C531  1  0.74330782  0.65994529  0.95945424  1
  H  H532  1  0.50438051  0.53880872  0.77855600  1
  C  C533  1  0.52015176  0.73817607  0.96013239  1
  C  C534  1  0.50186122  0.59569415  0.95914171  1
  H  H535  1  0.74939135  0.53076544  0.63679648  1
  C  C536  1  0.70667166  0.74573966  0.58643784  1
  C  C537  1  0.50216108  0.69906624  0.90594649  1
  C  C538  1  0.57053253  0.56465899  0.95715314  1
  C  C539  1  0.64288440  0.53923081  0.97969305  1
  C  C540  1  0.51993886  0.51471406  0.84631534  1
  C  C541  1  0.54608814  0.59945019  0.99742715  1
  C  C542  1  0.61162990  0.57199329  0.99472354  1
  H  H543  1  0.67700127  0.79586891  0.97792237  1
  C  C544  1  0.63168643  0.77482216  0.78949691  1
  C  C545  1  0.56080745  0.87927970  0.93620247  1
  H  H546  1  0.53556619  0.90437201  0.94032763  1
  C  C547  1  0.74246495  0.80154689  0.98981239  1
  O  O548  1  0.73355098  0.87735880  0.64652674  1
  C  C549  1  0.55365425  0.91365375  0.58546945  1
  H  H550  1  0.70534370  0.95039825  0.95148515  1
  C  C551  1  0.56764718  0.80163823  0.89222847  1
  C  C552  1  0.58591756  0.88038565  0.57448740  1
  C  C553  1  0.63319292  0.84949354  0.86029712  1
  O  O554  1  0.54381500  0.83334576  0.93621583  1
  C  C555  1  0.60715362  0.80731576  0.84932525  1
  H  H556  1  0.66303151  0.78288382  0.75872271  1
  O  O557  1  0.55966688  0.95290903  0.53211578  1
  C  C558  1  0.55750065  0.75541804  0.89502800  1
  H  H559  1  0.67510938  0.89602901  0.76799504  1
  C  C560  1  0.59173751  0.84157703  0.56453092  1
  H  H561  1  0.57662529  0.88290247  0.83209424  1
  C  C562  1  0.65066828  0.87211150  0.74183652  1
  O  O563  1  0.52641886  0.90477885  0.66010880  1
  H  H564  1  0.57566046  0.81475539  0.61953419  1
  C  C565  1  0.63171180  0.86914373  0.59716658  1
  H  H566  1  0.69302878  0.81398389  0.66183957  1
  C  C567  1  0.71385545  0.78932611  0.62226442  1
  H  H568  1  0.74418068  0.82710694  0.90479813  1
  C  C569  1  0.69717841  0.98433401  0.92133241  1
  O  O570  1  0.62474421  0.99878512  0.82123451  1
  C  C571  1  0.65710813  0.99044076  0.86147866  1
  H  H572  1  0.79753562  0.15677016  0.23537534  1
  C  C573  1  0.82592702  0.14047412  0.20441733  1
  H  H574  1  0.81827354  0.10537511  0.19110936  1
  H  H575  1  0.84426769  0.14059341  0.30564250  1
  H  H576  1  0.77273152  0.20107455  0.29056260  1
  O  O577  1  0.84949050  0.16262826  0.07554041  1
  C  C578  1  0.85458107  0.21211832  0.09907825  1
  C  C579  1  0.86088149  0.06268447  0.06520561  1
  O  O580  1  0.87716426  0.03115655  0.11321699  1
  H  H581  1  0.88142248  0.09160909  0.05060330  1
  H  H582  1  0.82789196  0.23149162  0.07417197  1
  C  C583  1  0.75047760  0.14543980  0.43150192  1
  H  H584  1  0.86362840  0.22274432  0.21280052  1
  H  H585  1  0.87446174  0.22489081  0.00550264  1
  H  H586  1  0.76034233  0.18066442  0.45287293  1
  H  H587  1  0.96037611  0.22699948  0.00132775  1
  C  C588  1  0.75004596  0.07050091  0.48700401  1
  O  O589  1  0.76892812  0.44827154  0.04754640  1
  C  C590  1  0.88628045  0.34450486  0.02506257  1
  H  H591  1  0.99360511  0.41050635  0.12486364  1
  H  H592  1  0.97228904  0.32164995  0.30485406  1
  C  C593  1  0.87804952  0.33248166  0.17461161  1
  H  H594  1  0.75841395  0.27674499  0.16722684  1
  C  C595  1  0.97806699  0.44512708  0.39697308  1
  O  O596  1  0.81065080  0.33971177  0.13277487  1
  O  O597  1  0.85712428  0.44147502  0.24191770  1
  C  C598  1  0.95649287  0.34168571  0.08255032  1
  H  H599  1  0.90115593  0.32402961  0.39073217  1
  Cu  Cu600  1  0.90862311  0.43758836  0.25578350  1
  O  O601  1  0.96142534  0.43818848  0.26964082  1
  H  H602  1  0.98332552  0.26875688  0.10461736  1
  Cu  Cu603  1  0.80298614  0.36885357  0.46670001  1
  C  C604  1  0.83459007  0.44403425  0.35594650  1
  C  C605  1  0.90904352  0.32922275  0.27696224  1
  C  C606  1  0.81157504  0.48229844  0.38259777  1
  C  C607  1  0.83658601  0.32959220  0.22170433  1
  O  O608  1  0.83042389  0.32439967  0.35991216  1
  O  O609  1  0.83784774  0.41325890  0.45372095  1
  C  C610  1  0.94781552  0.33186574  0.23051479  1
  Cu  Cu611  1  0.79024096  0.39636324  0.09078033  1
  H  H612  1  0.94127793  0.27915622  0.00587366  1
  C  C613  1  0.96893267  0.26186956  0.00080863  1
  C  C614  1  0.83458260  0.17493856  0.79567742  1
  C  C615  1  0.86022149  0.21730510  0.77754458  1
  C  C616  1  0.90047098  0.21872369  0.72970437  1
  C  C617  1  0.81448121  0.16672607  0.65955616  1
  C  C618  1  0.79110461  0.12736362  0.65176675  1
  H  H619  1  0.91605518  0.18617677  0.72561034  1
  H  H620  1  0.78195126  0.06268632  0.75564713  1
  C  C621  1  0.79344496  0.09704985  0.76925614  1
  C  C622  1  0.81477676  0.10836527  0.89927621  1
  H  H623  1  0.81763045  0.19007072  0.56626364  1
  C  C624  1  0.76387085  0.11264280  0.52525453  1
  C  C625  1  0.83261218  0.14957008  0.92304646  1
  H  H626  1  0.75706664  0.04431818  0.56504649  1
  C  C627  1  0.75576576  0.04426467  0.97525433  1
  C  C628  1  0.79591053  0.03165906  0.99845104  1
  C  C629  1  0.82079001  0.06863745  0.99540303  1
  H  H630  1  0.95031778  0.26147128  0.66092814  1
  C  C631  1  0.75081458  0.31171906  0.62087951  1
  C  C632  1  0.83573156  0.25568610  0.76006415  1
  H  H633  1  0.83589899  0.32559900  0.68301937  1
  C  C634  1  0.89374760  0.29625153  0.68818754  1
  C  C635  1  0.91864035  0.25997178  0.69663552  1
  H  H636  1  0.86114250  0.35026358  0.94421998  1
  C  C637  1  0.91570510  0.33894445  0.64446634  1
  H  H638  1  0.80274957  0.25106564  0.78640306  1
  O  O639  1  0.89608179  0.37519240  0.63744100  1
  H  H640  1  0.99808619  0.48982141  0.90569394  1
  H  H641  1  0.78939203  0.46218172  0.60111146  1
  O  O642  1  0.76393689  0.32300202  0.74572934  1
  C  C643  1  0.85155413  0.29537075  0.71030674  1
  C  C644  1  0.92471872  0.34828941  0.97984518  1
  H  H645  1  0.93267118  0.35481312  0.86437057  1
  O  O646  1  0.95051966  0.33859073  0.61395642  1
  C  C647  1  0.99395361  0.34724976  0.99606014  1
  O  O648  1  0.99395874  0.27719439  0.87089559  1
  Cu  Cu649  1  0.90937241  0.42256599  0.52794379  1
  O  O650  1  0.76240618  0.32922921  0.50565679  1
  C  C651  1  0.79096104  0.48780922  0.51844093  1
  O  O652  1  0.95736959  0.45290461  0.50750447  1
  C  C653  1  0.85624107  0.67457942  0.14631551  1
  C  C654  1  0.78554922  0.66235016  0.17562131  1
  C  C655  1  0.81703895  0.67268912  0.07565465  1
  O  O656  1  0.86138903  0.66384606  0.27716333  1
  H  H657  1  0.78013729  0.57319907  0.19644944  1
  C  C658  1  0.78554489  0.54934864  0.28443057  1
  H  H659  1  0.78890413  0.65558705  0.29462965  1
  O  O660  1  0.88286467  0.69156933  0.06815515  1
  Cu  Cu661  1  0.90142086  0.68088147  0.42145609  1
  C  C662  1  0.76228210  0.55538753  0.41816455  1
  H  H663  1  0.82787922  0.59577278  0.42042214  1
  C  C664  1  0.80870699  0.51248177  0.25824099  1
  H  H665  1  0.82506078  0.50771004  0.15460480  1
  H  H666  1  0.79782376  0.71113250  0.47705588  1
  C  C667  1  0.75468447  0.63874035  0.49103595  1
  C  C668  1  0.99555942  0.74061894  0.47862777  1
  H  H669  1  0.80213847  0.74242716  0.24003666  1
  O  O670  1  0.91495519  0.73934426  0.37966746  1
  H  H671  1  0.97700149  0.54408336  0.01697424  1
  C  C672  1  0.98348908  0.74937363  0.33383791  1
  C  C673  1  0.94207624  0.75120120  0.29065581  1
  C  C674  1  0.81274527  0.80923229  0.04280112  1
  Cu  Cu675  1  0.88525103  0.75581370  0.05893938  1
  C  C676  1  0.77515335  0.75493059  0.18592068  1
  O  O677  1  0.93400543  0.75890116  0.15646096  1
  O  O678  1  0.84211037  0.79600808  0.10917634  1
  C  C679  1  0.77544422  0.78788379  0.07813631  1
  H  H680  1  0.80472784  0.99682212  0.01553458  1
  H  H681  1  0.75986065  0.99571469  0.23942108  1
  C  C682  1  0.96280761  0.62111785  0.74815111  1
  C  C683  1  0.92880443  0.64636993  0.69718869  1
  O  O684  1  0.89585293  0.64018508  0.74686984  1
  H  H685  1  0.77886648  0.55005126  0.87011140  1
  H  H686  1  0.83611891  0.69503154  0.85840055  1
  H  H687  1  0.77453906  0.60657131  0.80638926  1
  C  C688  1  0.77525740  0.67452289  0.86558818  1
  H  H689  1  0.76570050  0.68565122  0.74981940  1
  H  H690  1  0.84843255  0.62589313  0.56836079  1
  C  C691  1  0.95317936  0.59007133  0.86336259  1
  H  H692  1  0.92257819  0.59029340  0.89946847  1
  H  H693  1  0.93968262  0.71839980  0.87124142  1
  H  H694  1  0.81284013  0.58050577  0.59199313  1
  C  C695  1  0.98237617  0.56733396  0.92660302  1
  C  C696  1  0.81275155  0.68142753  0.92237603  1
  O  O697  1  0.93461564  0.67273526  0.58043549  1
  H  H698  1  0.75759955  0.58785940  0.99827859  1
  C  C699  1  0.75976900  0.57928245  0.87833785  1
  H  H700  1  0.97392624  0.73968012  0.56019716  1
  C  C701  1  0.95878018  0.74525093  0.83811722  1
  O  O702  1  0.79118117  0.64531419  0.54250687  1
  C  C703  1  0.82088370  0.60999642  0.52841848  1
  C  C704  1  0.76733966  0.52465744  0.53804474  1
  C  C705  1  0.77403560  0.73291375  0.51659269  1
  C  C706  1  0.99924887  0.74354387  0.86129611  1
  O  O707  1  0.87655703  0.75788806  0.84608216  1
  O  O708  1  0.79763584  0.86414197  0.63027592  1
  C  C709  1  0.75236319  0.80416654  0.60503107  1
  C  C710  1  0.96458385  0.81711702  0.72969268  1
  O  O711  1  0.88152765  0.81544031  0.70067767  1
  Cu  Cu712  1  0.83350020  0.84094240  0.75577071  1
  H  H713  1  0.95264692  0.84344914  0.66319500  1
  C  C714  1  0.94056811  0.78238294  0.77991142  1
  C  C715  1  0.75992800  0.85241406  0.62986824  1
  C  C716  1  0.89713198  0.78386777  0.77380073  1
  O  O717  1  0.81322833  0.83927288  0.94361631  1
  H  H718  1  0.81170507  0.79111206  0.51626617  1
  C  C719  1  0.78320935  0.77732825  0.54878275  1
