# generated using pymatgen
data_CuH13C21O5
_symmetry_space_group_name_H-M   'P 1'
_cell_length_a   29.91971577
_cell_length_b   29.15757787
_cell_length_c   9.70076372
_cell_angle_alpha   90.00000000
_cell_angle_beta   90.00000000
_cell_angle_gamma   90.00000000
_symmetry_Int_Tables_number   1
_chemical_formula_structural   CuH13C21O5
_chemical_formula_sum   'Cu18 H234 C378 O90'
_cell_volume   8462.81474836
_cell_formula_units_Z   18
loop_
 _symmetry_equiv_pos_site_id
 _symmetry_equiv_pos_as_xyz
  1  'x, y, z'
loop_
 _atom_site_type_symbol
 _atom_site_label
 _atom_site_symmetry_multiplicity
 _atom_site_fract_x
 _atom_site_fract_y
 _atom_site_fract_z
 _atom_site_occupancy
  C  C0  1  0.15602981  0.09117399  0.23540319  1
  C  C1  1  0.13148781  0.05088477  0.26498147  1
  C  C2  1  0.21547737  0.16225080  0.18128548  1
  C  C3  1  0.19857472  0.09141087  0.30386334  1
  C  C4  1  0.22716674  0.12804471  0.27971229  1
  H  H5  1  0.20645414  0.06487620  0.38062822  1
  C  C6  1  0.17221243  0.16103862  0.12732154  1
  C  C7  1  0.13791328  0.12668537  0.14904500  1
  C  C8  1  0.11465071  0.01468506  0.29943504  1
  H  H9  1  0.23705153  0.19338759  0.17284939  1
  H  H10  1  0.06444298  0.07835089  0.22423015  1
  C  C11  1  0.04075255  0.19671806  0.45002249  1
  C  C12  1  0.06435687  0.09034206  0.11692570  1
  O  O13  1  0.09971329  0.12656446  0.08826884  1
  H  H14  1  0.01621233  0.17661743  0.38895014  1
  C  C15  1  0.03994015  0.24565331  0.45026430  1
  H  H16  1  0.08631678  0.19983013  0.09305785  1
  C  C17  1  0.16026226  0.20648270  0.06377025  1
  H  H18  1  0.02530591  0.01893767  0.41464849  1
  H  H19  1  0.08208333  0.06315833  0.05871958  1
  H  H20  1  0.03128176  0.09405029  0.07456136  1
  C  C21  1  0.11373469  0.22008328  0.05456550  1
  O  O22  1  0.04238147  0.10166788  0.48447936  1
  H  H23  1  0.23209887  0.21992130  0.00636718  1
  H  H24  1  0.02158113  0.26664682  0.38226951  1
  H  H25  1  0.22315594  0.38317693  0.00028399  1
  O  O26  1  0.06140182  0.45680335  0.03499481  1
  C  C27  1  0.09211717  0.48495322  0.09092445  1
  Cu  Cu28  1  0.00651100  0.43899029  0.12441820  1
  H  H29  1  0.15862711  0.25717323  0.34503916  1
  C  C30  1  0.22995278  0.35342473  0.07353716  1
  C  C31  1  0.10086009  0.29638474  0.27863586  1
  C  C32  1  0.15244907  0.37646946  0.30597869  1
  H  H33  1  0.09391436  0.41509646  0.23951992  1
  C  C34  1  0.03664973  0.34421871  0.18399198  1
  O  O35  1  0.01135523  0.31222138  0.19563775  1
  C  C36  1  0.10876639  0.38006721  0.26025480  1
  C  C37  1  0.17207263  0.33205585  0.32923823  1
  H  H38  1  0.17561449  0.40614445  0.32027548  1
  H  H39  1  0.19649071  0.33820666  0.10263878  1
  C  C40  1  0.08315877  0.34029592  0.24227228  1
  H  H41  1  0.24360039  0.32357056  0.02016834  1
  O  O42  1  0.11591040  0.47232504  0.18173511  1
  O  O43  1  0.02609294  0.38119256  0.10663771  1
  H  H44  1  0.08059309  0.26502597  0.26808008  1
  C  C45  1  0.22028055  0.33502904  0.37641853  1
  C  C46  1  0.14537085  0.29070185  0.32030358  1
  C  C47  1  0.20672257  0.16576276  0.70309909  1
  C  C48  1  0.21471038  0.08338701  0.64038314  1
  H  H49  1  0.18478049  0.19379628  0.72631758  1
  C  C50  1  0.09170675  0.19836694  0.65297241  1
  H  H51  1  0.11109125  0.17836466  0.72962059  1
  Cu  Cu52  1  0.09933991  0.04028691  0.65789239  1
  C  C53  1  0.19164040  0.12542422  0.63900698  1
  O  O54  1  0.09174419  0.10113204  0.64722767  1
  H  H55  1  0.15669639  0.12369841  0.60476388  1
  C  C56  1  0.19472495  0.04265113  0.58916498  1
  C  C57  1  0.06830633  0.17509134  0.54968356  1
  H  H58  1  0.24406911  0.23662556  0.59962529  1
  C  C59  1  0.09041309  0.24659020  0.66135920  1
  C  C60  1  0.06691403  0.12323494  0.55534554  1
  O  O61  1  0.15357927  0.04567565  0.55385395  1
  C  C62  1  0.19554796  0.23006438  0.99379216  1
  O  O63  1  0.21598257  0.00525688  0.57395032  1
  H  H64  1  0.11324308  0.00070460  0.97766198  1
  H  H65  1  0.04977913  0.49564563  0.56751765  1
  C  C66  1  0.22464627  0.31264273  0.50314032  1
  H  H67  1  0.11097063  0.34467658  0.54340010  1
  H  H68  1  0.10488368  0.26525217  0.74772991  1
  C  C69  1  0.06486525  0.27060043  0.55534715  1
  H  H70  1  0.19600182  0.29668229  0.54959318  1
  C  C71  1  0.13237068  0.33724022  0.90223849  1
  C  C72  1  0.22481003  0.45245841  0.62976106  1
  H  H73  1  0.07412923  0.28044760  0.99002506  1
  C  C74  1  0.08311803  0.48249263  0.57013553  1
  C  C75  1  0.09649156  0.43687904  0.60502711  1
  H  H76  1  0.00893393  0.43425215  0.68548645  1
  Cu  Cu77  1  0.07207025  0.40166974  0.98652412  1
  C  C78  1  0.00155799  0.31550284  0.64870702  1
  C  C79  1  0.07715107  0.35174798  0.58223913  1
  C  C80  1  0.04647565  0.31762181  0.59659102  1
  C  C81  1  0.17687318  0.46624582  0.59994249  1
  C  C82  1  0.01987621  0.39897007  0.66377045  1
  C  C83  1  0.14487459  0.29147853  0.94792755  1
  H  H84  1  0.21657175  0.29188655  0.89656322  1
  C  C85  1  0.18851143  0.27348583  0.93946342  1
  O  O86  1  0.08923475  0.34822461  0.90584373  1
  H  H87  1  0.20281547  0.40769669  0.78990910  1
  O  O88  1  0.15836196  0.36574146  0.86106639  1
  C  C89  1  0.14315262  0.43418094  0.61738413  1
  C  C90  1  0.06471452  0.39766845  0.61875325  1
  C  C91  1  0.10725359  0.26334283  0.99396121  1
  C  C92  1  0.23220326  0.42488843  0.74833766  1
  H  H93  1  0.15474867  0.40053538  0.64775893  1
  C  C94  1  0.06834800  0.56501623  0.40512298  1
  C  C95  1  0.04530999  0.60523606  0.38279972  1
  H  H96  1  0.06593634  0.53578459  0.33224753  1
  H  H97  1  0.14106373  0.55329313  0.19493164  1
  C  C98  1  0.21648411  0.69744117  0.18219481  1
  H  H99  1  0.03236026  0.64886469  0.10612694  1
  C  C100  1  0.11607828  0.56499191  0.11912967  1
  H  H101  1  0.13542015  0.63432659  0.12562867  1
  H  H102  1  0.21384536  0.60838109  0.46540307  1
  H  H103  1  0.02077541  0.60530226  0.29112678  1
  C  C104  1  0.02324314  0.68596103  0.44284878  1
  C  C105  1  0.04796802  0.64349372  0.47053383  1
  C  C106  1  0.00301047  0.65055654  0.03888340  1
  O  O107  1  0.20750569  0.66364579  0.12208242  1
  C  C108  1  0.11204854  0.60976720  0.07286236  1
  C  C109  1  0.09159590  0.53272389  0.03839116  1
  H  H110  1  0.13562441  0.71109907  0.04382015  1
  C  C111  1  0.18876238  0.74002200  0.17341572  1
  C  C112  1  0.14852136  0.74153273  0.09364441  1
  H  H113  1  0.15556044  0.59234336  0.44157889  1
  O  O114  1  0.05784194  0.85228275  0.06553198  1
  C  C115  1  0.09144981  0.97356176  0.34064379  1
  H  H116  1  0.19403293  0.85122987  0.29643542  1
  C  C117  1  0.20388905  0.77829030  0.24504319  1
  C  C118  1  0.00780510  0.97700782  0.06132507  1
  H  H119  1  0.01743050  0.98967016  0.15749876  1
  C  C120  1  0.08012563  0.93150250  0.01723608  1
  H  H121  1  0.20727120  0.89112636  0.11199773  1
  C  C122  1  0.08869614  0.88530924  0.05263133  1
  C  C123  1  0.00975160  0.86913353  0.38453187  1
  H  H124  1  0.09464591  0.78444093  0.02671863  1
  C  C125  1  0.01073242  0.86209776  0.05044328  1
  C  C126  1  0.03985184  0.98599739  0.38955317  1
  C  C127  1  0.14466886  0.82506744  0.14603312  1
  C  C128  1  0.17082505  0.90123238  0.09235695  1
  C  C129  1  0.15375313  0.94166580  0.04788197  1
  C  C130  1  0.01598754  0.95107316  0.37869107  1
  H  H131  1  0.11076901  0.95682732  0.42747408  1
  C  C132  1  0.13201478  0.87061818  0.09125159  1
  O  O133  1  0.06176178  0.86801254  0.43430175  1
  C  C134  1  0.12551386  0.78338197  0.08845109  1
  H  H135  1  0.09216016  0.94576718  0.26020471  1
  C  C136  1  0.24217367  0.87690245  0.49463844  1
  H  H137  1  0.23547686  0.77363407  0.29841992  1
  C  C138  1  0.18305638  0.82135926  0.23605673  1
  C  C139  1  0.11685968  0.96381524  0.00374063  1
  H  H140  1  0.19844423  0.94072607  0.49695236  1
  C  C141  1  0.13362355  0.67987105  0.83627304  1
  C  C142  1  0.21812595  0.70076767  0.70496282  1
  C  C143  1  0.13939947  0.72447803  0.78112994  1
  H  H144  1  0.15872830  0.65387266  0.82021061  1
  H  H145  1  0.21544875  0.66521118  0.75031746  1
  C  C146  1  0.09145454  0.66919956  0.89497040  1
  C  C147  1  0.05361831  0.69866046  0.89688602  1
  C  C148  1  0.05872507  0.58825101  0.88300897  1
  C  C149  1  0.18405313  0.73352034  0.71182290  1
  H  H150  1  0.11233508  0.59724162  0.72474993  1
  H  H151  1  0.07899613  0.67060650  0.65626731  1
  H  H152  1  0.03807578  0.59706918  0.79396003  1
  C  C153  1  0.08492252  0.62265998  0.95781070  1
  C  C154  1  0.06176717  0.54266122  0.92970768  1
  H  H155  1  0.04279624  0.51711861  0.87610032  1
  C  C156  1  0.09515793  0.60043358  0.62526437  1
  C  C157  1  0.07536842  0.64189454  0.58736442  1
  C  C158  1  0.16333453  0.51124265  0.56577112  1
  O  O159  1  0.02299018  0.71516633  0.53449297  1
  O  O160  1  0.19461228  0.54257783  0.54841875  1
  C  C161  1  0.11565321  0.51636105  0.55035922  1
  C  C162  1  0.09168198  0.56257826  0.53352392  1
  C  C163  1  0.06273766  0.74094896  0.83036969  1
  H  H164  1  0.00051602  0.61691555  0.99225121  1
  C  C165  1  0.18436291  0.59205943  0.51388000  1
  H  H166  1  0.17290986  0.60806781  0.61426284  1
  O  O167  1  0.01249503  0.69084605  0.94857645  1
  C  C168  1  0.02960832  0.81507274  0.72741980  1
  C  C169  1  0.23350289  0.78555752  0.58352267  1
  C  C170  1  0.10370901  0.75648976  0.78252569  1
  C  C171  1  0.12138542  0.90835619  0.56015999  1
  H  H172  1  0.06667671  0.93151798  0.54404189  1
  C  C173  1  0.13145974  0.94876373  0.64651659  1
  C  C174  1  0.02082973  0.94013936  0.83653624  1
  H  H175  1  0.11010625  0.79233049  0.75469804  1
  H  H176  1  0.04154975  0.92087154  0.76037463  1
  C  C177  1  0.19177075  0.77699440  0.64984143  1
  C  C178  1  0.03646345  0.95036204  0.97112108  1
  H  H179  1  0.16719023  0.80391625  0.65452715  1
  O  O180  1  0.09971145  0.97624566  0.66177120  1
  C  C181  1  0.02652131  0.77578339  0.81605922  1
  Cu  Cu182  1  0.22313781  0.96576006  0.72939733  1
  H  H183  1  0.06162062  0.81724677  0.67219758  1
  O  O184  1  0.16514237  0.94627703  0.72273384  1
  C  C185  1  0.08010301  0.89776838  0.50773567  1
  H  H186  1  0.00263318  0.87390621  0.94790999  1
  C  C187  1  0.23922546  0.83224251  0.53656424  1
  H  H188  1  0.15621389  0.84041288  0.50718066  1
  C  C189  1  0.16001243  0.87901349  0.52517012  1
  C  C190  1  0.20083055  0.90286656  0.51259594  1
  C  C191  1  0.29491031  0.08911015  0.37886902  1
  H  H192  1  0.28019577  0.05915645  0.32899640  1
  C  C193  1  0.27314625  0.13202609  0.35068013  1
  H  H194  1  0.37653984  0.07150119  0.21737413  1
  C  C195  1  0.33804034  0.08853640  0.44241937  1
  C  C196  1  0.44254744  0.17484381  0.21991536  1
  C  C197  1  0.40650172  0.15062823  0.17320601  1
  H  H198  1  0.37391169  0.14407713  0.21610981  1
  C  C199  1  0.29759746  0.17147045  0.38242575  1
  H  H200  1  0.28104178  0.20400039  0.35384187  1
  C  C201  1  0.36082883  0.04230915  0.45901561  1
  C  C202  1  0.33996854  0.16833026  0.44160341  1
  H  H203  1  0.28941508  0.12577245  0.11592621  1
  C  C204  1  0.36828943  0.06786948  0.10760256  1
  C  C205  1  0.36237167  0.12788872  0.48389542  1
  C  C206  1  0.40808729  0.03410825  0.44313898  1
  H  H207  1  0.43366560  0.06167118  0.41440302  1
  H  H208  1  0.42350517  0.18241458  0.46958216  1
  H  H209  1  0.32276114  0.01087964  0.14189389  1
  C  C210  1  0.33941411  0.03313389  0.06404909  1
  O  O211  1  0.31191432  0.18725979  0.00853280  1
  C  C212  1  0.42217558  0.13390910  0.04234528  1
  C  C213  1  0.29280874  0.14170507  0.00766881  1
  C  C214  1  0.32837903  0.00668931  0.47981747  1
  C  C215  1  0.48487268  0.18907975  0.18531433  1
  C  C216  1  0.35889361  0.21653813  0.47253070  1
  H  H217  1  0.38413660  0.24030661  0.25901322  1
  C  C218  1  0.38315769  0.24550564  0.37681082  1
  C  C219  1  0.38895797  0.09727373  0.00716156  1
  C  C220  1  0.49082708  0.17700135  0.03679269  1
  O  O221  1  0.49996437  0.31373745  0.18573189  1
  C  C222  1  0.40601200  0.42022472  0.39361835  1
  H  H223  1  0.45957651  0.25606478  0.06698401  1
  C  C224  1  0.25458716  0.36104186  0.30965568  1
  C  C225  1  0.36604630  0.45664377  0.20856265  1
  H  H226  1  0.29674302  0.43876316  0.18998810  1
  C  C227  1  0.38783309  0.25405378  0.01415910  1
  O  O228  1  0.25671980  0.37234721  0.17686322  1
  C  C229  1  0.32921881  0.43362192  0.24955863  1
  O  O230  1  0.46883564  0.37777490  0.23158948  1
  C  C231  1  0.38417421  0.34559886  0.13287443  1
  C  C232  1  0.34612400  0.32670558  0.06616847  1
  C  C233  1  0.42738325  0.27356097  0.06921219  1
  C  C234  1  0.28705537  0.37513807  0.40865182  1
  C  C235  1  0.40866155  0.27988219  0.43835589  1
  H  H236  1  0.43661819  0.41495447  0.45516691  1
  C  C237  1  0.40675107  0.45201830  0.28533547  1
  H  H238  1  0.36659105  0.47812197  0.12041954  1
  H  H239  1  0.31366867  0.34532617  0.06929530  1
  C  C240  1  0.46552345  0.33502793  0.18566203  1
  H  H241  1  0.43113326  0.30281369  0.37347640  1
  C  C242  1  0.36874049  0.39398603  0.43141243  1
  O  O243  1  0.48446430  0.46344926  0.30614239  1
  C  C244  1  0.32689622  0.40214592  0.36483461  1
  C  C245  1  0.42345262  0.31831883  0.12269230  1
  C  C246  1  0.44868121  0.47542954  0.24748087  1
  C  C247  1  0.34808493  0.28202155  0.00470520  1
  H  H248  1  0.38595172  0.37711168  0.19550832  1
  C  C249  1  0.34743048  0.05347136  0.81917428  1
  H  H250  1  0.34470275  0.04364590  0.70926955  1
  C  C251  1  0.37581782  0.08801625  0.86715909  1
  H  H252  1  0.38967442  0.11359496  0.79397535  1
  H  H253  1  0.31453469  0.12406766  0.75475123  1
  C  C254  1  0.27982138  0.12553006  0.72412529  1
  H  H255  1  0.27952113  0.05054963  0.68590338  1
  C  C256  1  0.32878282  0.02607775  0.92475549  1
  H  H257  1  0.33381795  0.19620462  0.67584054  1
  C  C258  1  0.27091356  0.21089993  0.79704665  1
  C  C259  1  0.35572516  0.21999865  0.61859583  1
  C  C260  1  0.29664063  0.21713817  0.91900917  1
  H  H261  1  0.42313324  0.18227683  0.66575908  1
  C  C262  1  0.45937027  0.08287851  0.81569098  1
  O  O263  1  0.47070261  0.12915098  0.83798069  1
  C  C264  1  0.46008129  0.14636199  0.97247872  1
  H  H265  1  0.31312241  0.11697406  0.94406624  1
  C  C266  1  0.25343498  0.16656404  0.73422687  1
  H  H267  1  0.44913325  0.06453416  0.91297460  1
  C  C268  1  0.26031973  0.08391233  0.68422716  1
  H  H269  1  0.38620435  0.21603869  0.97731198  1
  H  H270  1  0.43357787  0.07786394  0.73468687  1
  H  H271  1  0.46543766  0.15051110  0.58112529  1
  H  H272  1  0.49072065  0.06591748  0.78432133  1
  H  H273  1  0.25923653  0.14278040  0.95473781  1
  C  C274  1  0.26203961  0.24408352  0.69500049  1
  C  C275  1  0.42932292  0.16078484  0.57091038  1
  O  O276  1  0.40325774  0.12195320  0.53763907  1
  H  H277  1  0.29301222  0.01441704  0.50751979  1
  H  H278  1  0.46414137  0.25097344  0.58208452  1
  Cu  Cu279  1  0.48355052  0.49449899  0.97756878  1
  H  H280  1  0.49734120  0.25634732  0.73510049  1
  C  C281  1  0.49916234  0.25864823  0.62067629  1
  H  H282  1  0.33427892  0.47748548  0.55782976  1
  H  H283  1  0.38076938  0.26292488  0.78553440  1
  Cu  Cu284  1  0.43202964  0.49243990  0.74962417  1
  O  O285  1  0.48363403  0.45856638  0.73289715  1
  C  C286  1  0.42965835  0.32178080  0.65371499  1
  H  H287  1  0.27827412  0.39260948  0.88393497  1
  C  C288  1  0.31052370  0.26408283  0.91435715  1
  H  H289  1  0.31746984  0.33471139  0.82948647  1
  C  C290  1  0.30042993  0.30092948  0.82751570  1
  C  C291  1  0.48924955  0.42051216  0.79904671  1
  H  H292  1  0.37105206  0.36879980  0.51574435  1
  C  C293  1  0.27574988  0.41634111  0.79637611  1
  C  C294  1  0.26045858  0.32503601  0.59278245  1
  C  C295  1  0.31126755  0.43746391  0.72772078  1
  O  O296  1  0.36321699  0.40448408  0.87921609  1
  C  C297  1  0.38011444  0.25700312  0.67731595  1
  C  C298  1  0.40367245  0.28446102  0.58590138  1
  O  O299  1  0.42598297  0.32351192  0.78616367  1
  H  H300  1  0.32120204  0.36654540  0.61320236  1
  C  C301  1  0.26280288  0.47419448  0.56167358  1
  O  O302  1  0.46792332  0.41172388  0.90990354  1
  C  C303  1  0.27148278  0.29142313  0.71281156  1
  Cu  Cu304  1  0.41884872  0.37150274  0.89451130  1
  O  O305  1  0.38833302  0.44361205  0.69636109  1
  O  O306  1  0.45013465  0.34954538  0.58740769  1
  C  C307  1  0.29126294  0.35812065  0.54685096  1
  C  C308  1  0.35731358  0.42766888  0.77113108  1
  C  C309  1  0.30493992  0.46313050  0.60635048  1
  C  C310  1  0.39959648  0.68271552  0.12168349  1
  O  O311  1  0.39833880  0.63900826  0.13916259  1
  C  C312  1  0.47557914  0.67612882  0.18906535  1
  H  H313  1  0.46895468  0.63968211  0.21454934  1
  C  C314  1  0.44058665  0.70687389  0.15036850  1
  Cu  Cu315  1  0.30831884  0.70305694  0.16305570  1
  O  O316  1  0.36465431  0.70392904  0.08175918  1
  Cu  Cu317  1  0.43371771  0.60839086  0.00889958  1
  H  H318  1  0.25968568  0.50160830  0.47631526  1
  H  H319  1  0.29252731  0.64037705  0.47989961  1
  O  O320  1  0.45026573  0.50230692  0.14852110  1
  O  O321  1  0.25415938  0.70079086  0.25466982  1
  C  C322  1  0.34336083  0.96116324  0.48389344  1
  O  O323  1  0.37814665  0.87509383  0.45352326  1
  Cu  Cu324  1  0.47337527  0.85905519  0.48744601  1
  H  H325  1  0.49212558  0.80833582  0.11122719  1
  C  C326  1  0.40264633  0.90725930  0.42694791  1
  O  O327  1  0.29470063  0.75614345  0.05333820  1
  C  C328  1  0.35047175  0.81620190  0.01146013  1
  H  H329  1  0.41390948  0.77529521  0.09339573  1
  C  C330  1  0.40580538  0.87621939  0.00480228  1
  H  H331  1  0.35370636  0.87025920  0.16007220  1
  H  H332  1  0.27134637  0.89583511  0.46074015  1
  C  C333  1  0.38733638  0.95606301  0.44707454  1
  C  C334  1  0.42083960  0.98992967  0.42483722  1
  H  H335  1  0.29620257  0.81173097  0.40825563  1
  O  O336  1  0.44347023  0.90166927  0.38717378  1
  H  H337  1  0.45527194  0.97946548  0.39363676  1
  O  O338  1  0.29294459  0.81846819  0.17499319  1
  H  H339  1  0.42359072  0.90683399  0.04507071  1
  C  C340  1  0.48625740  0.77268911  0.14136474  1
  C  C341  1  0.44418223  0.75422992  0.13044672  1
  C  C342  1  0.31072473  0.79606687  0.08579698  1
  C  C343  1  0.36659947  0.85781339  0.06459906  1
  H  H344  1  0.35825339  0.80608766  0.43833874  1
  C  C345  1  0.32355368  0.80290532  0.48756126  1
  C  C346  1  0.33366944  0.63864758  0.87030989  1
  C  C347  1  0.34596838  0.60576471  0.77005359  1
  C  C348  1  0.33432841  0.60291526  0.62810227  1
  O  O349  1  0.38567652  0.53499835  0.74388035  1
  C  C350  1  0.37376133  0.56792321  0.82025551  1
  C  C351  1  0.29102476  0.67261926  0.68475917  1
  C  C352  1  0.30484787  0.67325451  0.82559769  1
  C  C353  1  0.30522493  0.63786821  0.59073410  1
  H  H354  1  0.48441223  0.64635839  0.80310497  1
  O  O355  1  0.47252565  0.58339090  0.87889629  1
  H  H356  1  0.29174521  0.70094650  0.89477610  1
  H  H357  1  0.34795337  0.57294591  0.57434477  1
  C  C358  1  0.25880313  0.71238134  0.64956468  1
  O  O359  1  0.38704900  0.57036133  0.94341337  1
  H  H360  1  0.34355386  0.63391391  0.97725347  1
  H  H361  1  0.49106607  0.67253171  0.53769030  1
  C  C362  1  0.27125432  0.75332505  0.58398217  1
  O  O363  1  0.31244585  0.75954604  0.53743022  1
  H  H364  1  0.39584805  0.93782295  0.69510769  1
  H  H365  1  0.38688483  0.99077738  0.78988005  1
  O  O366  1  0.45430246  0.75477242  0.57011304  1
  H  H367  1  0.35968819  0.76385381  0.86392464  1
  C  C368  1  0.42507149  0.85849707  0.88353538  1
  H  H369  1  0.49111670  0.80848943  0.84462361  1
  C  C370  1  0.37115405  0.79691570  0.89600098  1
  C  C371  1  0.47011244  0.88122588  0.84512297  1
  H  H372  1  0.32200096  0.83341529  0.55188646  1
  H  H373  1  0.42433109  0.80186723  0.73535426  1
  C  C374  1  0.40291602  0.95493736  0.79657972  1
  C  C375  1  0.47950580  0.92885671  0.82617330  1
  O  O376  1  0.27967092  0.98123073  0.77058814  1
  C  C377  1  0.40697539  0.81766918  0.82913610  1
  O  O378  1  0.45008032  0.96399999  0.81722261  1
  C  C379  1  0.49141067  0.76956276  0.55242209  1
  H  H380  1  0.38456134  0.93521873  0.87739157  1
  C  C381  1  0.29479579  0.98844718  0.89508895  1
  O  O382  1  0.28083624  0.96834733  0.99698884  1
  H  H383  1  0.32348051  0.93146306  0.50973087  1
  C  C384  1  0.60163282  0.15670436  0.22919971  1
  C  C385  1  0.55053646  0.09100353  0.23430029  1
  H  H386  1  0.62281173  0.17980865  0.16828187  1
  C  C387  1  0.58441470  0.11800600  0.16849069  1
  C  C388  1  0.52800677  0.05256206  0.16876594  1
  H  H389  1  0.59364000  0.11045866  0.06149676  1
  C  C390  1  0.58711666  0.16635686  0.36386818  1
  C  C391  1  0.53625926  0.09881132  0.37633613  1
  H  H392  1  0.66928129  0.19181578  0.34793174  1
  H  H393  1  0.50914645  0.20449403  0.25404899  1
  O  O394  1  0.54522552  0.04686796  0.02355381  1
  H  H395  1  0.74106115  0.20346135  0.40503929  1
  C  C396  1  0.61423221  0.00119597  0.38454962  1
  C  C397  1  0.64766604  0.21824903  0.40476885  1
  H  H398  1  0.62617995  0.02499691  0.29675071  1
  C  C399  1  0.60338887  0.21078233  0.42927831  1
  C  C400  1  0.55521304  0.13674621  0.43224725  1
  H  H401  1  0.51130453  0.07532811  0.43059702  1
  O  O402  1  0.50193703  0.02695471  0.21695660  1
  H  H403  1  0.54737464  0.24916296  0.12475193  1
  C  C404  1  0.74937274  0.24017575  0.40722101  1
  C  C405  1  0.55810419  0.23032152  0.03606797  1
  H  H406  1  0.59320966  0.37097666  0.47402688  1
  H  H407  1  0.70816756  0.34660311  0.45339118  1
  H  H408  1  0.61773216  0.27525627  0.03296975  1
  C  C409  1  0.73203553  0.31676144  0.44975307  1
  C  C410  1  0.67806875  0.47234944  0.18262530  1
  C  C411  1  0.66637975  0.25901103  0.46103323  1
  Cu  Cu412  1  0.51974934  0.40674960  0.27085178  1
  C  C413  1  0.63636188  0.47263559  0.25230907  1
  H  H414  1  0.69560660  0.43916511  0.16098301  1
  C  C415  1  0.61223597  0.42916858  0.28484469  1
  O  O416  1  0.57082659  0.43292712  0.32781180  1
  C  C417  1  0.71484878  0.27125289  0.43938463  1
  O  O418  1  0.62896838  0.39194750  0.27342779  1
  C  C419  1  0.55609396  0.16935355  0.86875815  1
  C  C420  1  0.59691791  0.18092347  0.81730365  1
  H  H421  1  0.61395063  0.15953323  0.73858686  1
  H  H422  1  0.58139877  0.04653825  0.75902234  1
  H  H423  1  0.54044363  0.13689742  0.83972045  1
  O  O424  1  0.63498202  0.10232982  0.60517195  1
  C  C425  1  0.62391934  0.06552110  0.57163146  1
  H  H426  1  0.54733493  0.14772360  0.53666804  1
  O  O427  1  0.67957391  0.21842894  0.71587994  1
  C  C428  1  0.61927473  0.21890881  0.87432768  1
  C  C429  1  0.66223575  0.23483949  0.81429248  1
  C  C430  1  0.56541009  0.01381426  0.73633223  1
  C  C431  1  0.60601870  0.02196519  0.52650272  1
  C  C432  1  0.53485582  0.19228505  0.98554902  1
  C  C433  1  0.59883418  0.24490515  0.98318393  1
  O  O434  1  0.71394730  0.00222314  0.96467280  1
  C  C435  1  0.53468597  0.00941992  0.96728868  1
  O  O436  1  0.53166726  0.22587539  0.53613482  1
  C  C437  1  0.57356234  0.23715927  0.51593014  1
  H  H438  1  0.56674125  0.28164969  0.81897396  1
  O  O439  1  0.68031921  0.38143337  0.71589782  1
  O  O440  1  0.67847358  0.26982987  0.88420605  1
  C  C441  1  0.57242805  0.32005019  0.62302784  1
  C  C442  1  0.57258127  0.36456176  0.56169469  1
  C  C443  1  0.71467430  0.49816648  0.80508764  1
  O  O444  1  0.69900121  0.40804375  0.90879846  1
  C  C445  1  0.55814990  0.31462889  0.76727047  1
  H  H446  1  0.72327195  0.49096472  0.91366818  1
  H  H447  1  0.65361852  0.32259777  0.56986515  1
  H  H448  1  0.51544632  0.34305288  0.92583508  1
  H  H449  1  0.66828168  0.43608743  0.53053408  1
  Cu  Cu450  1  0.67861147  0.32378122  0.79382124  1
  C  C451  1  0.69372013  0.41508287  0.78139157  1
  C  C452  1  0.70114726  0.46142458  0.72220675  1
  C  C453  1  0.68608248  0.46558048  0.58451604  1
  C  C454  1  0.59524245  0.27927144  0.55932147  1
  H  H455  1  0.55088908  0.43574322  0.59237561  1
  C  C456  1  0.53209714  0.34841374  0.82172490  1
  C  C457  1  0.55038134  0.40056191  0.63212053  1
  C  C458  1  0.52108608  0.38967166  0.74313975  1
  Cu  Cu459  1  0.74560344  0.36291042  0.90299394  1
  H  H460  1  0.51135630  0.29370005  0.58735096  1
  C  C461  1  0.63919497  0.28972853  0.53752741  1
  C  C462  1  0.67749453  0.55721238  0.19646608  1
  C  C463  1  0.66729593  0.64033550  0.17182001  1
  H  H464  1  0.63743929  0.63622606  0.23879203  1
  H  H465  1  0.58841039  0.68269399  0.13358992  1
  C  C466  1  0.63403426  0.55434758  0.25787840  1
  H  H467  1  0.61716224  0.58845913  0.27772077  1
  H  H468  1  0.54292989  0.68118775  0.26826467  1
  C  C469  1  0.61355072  0.51235790  0.28321953  1
  H  H470  1  0.68680146  0.71469622  0.40181176  1
  C  C471  1  0.67688875  0.68528007  0.12016002  1
  C  C472  1  0.69392359  0.60207994  0.14080507  1
  C  C473  1  0.68838897  0.67743136  0.43145818  1
  C  C474  1  0.72907457  0.65422465  0.41180474  1
  H  H475  1  0.58274106  0.51486181  0.33955460  1
  C  C476  1  0.51564653  0.69917043  0.21566165  1
  C  C477  1  0.69942212  0.51371870  0.17333138  1
  C  C478  1  0.59928276  0.71905645  0.14303862  1
  C  C479  1  0.64661336  0.72739444  0.13744297  1
  H  H480  1  0.73517300  0.51296689  0.14548483  1
  C  C481  1  0.73374213  0.60355929  0.05305519  1
  C  C482  1  0.64928560  0.65739318  0.49029469  1
  H  H483  1  0.67664380  0.51807756  0.41527253  1
  C  C484  1  0.73399574  0.60984099  0.47203254  1
  C  C485  1  0.73908547  0.64842361  0.00407255  1
  C  C486  1  0.71288737  0.68853352  0.02798146  1
  C  C487  1  0.60480809  0.68179750  0.49615564  1
  H  H488  1  0.74704609  0.74769025  0.32891540  1
  C  C489  1  0.52408524  0.74600149  0.17568546  1
  H  H490  1  0.55615444  0.62638241  0.49345551  1
  H  H491  1  0.63715929  0.75409986  0.49995091  1
  C  C492  1  0.57263532  0.75659158  0.15628702  1
  C  C493  1  0.63355548  0.80909190  0.14885048  1
  C  C494  1  0.56864228  0.88396945  0.19379796  1
  C  C495  1  0.58591503  0.80371870  0.16599321  1
  H  H496  1  0.60148345  0.88843414  0.24897516  1
  O  O497  1  0.60861703  0.96613382  0.32770918  1
  C  C498  1  0.64057838  0.88765557  0.04259182  1
  H  H499  1  0.67828057  0.82763225  0.48871792  1
  C  C500  1  0.72478645  0.90299163  0.18128843  1
  C  C501  1  0.70008475  0.86338820  0.20460921  1
  C  C502  1  0.66485982  0.77292656  0.14248116  1
  O  O503  1  0.55620417  0.83544387  0.18663538  1
  H  H504  1  0.70009358  0.78217832  0.13007572  1
  C  C505  1  0.70430875  0.93393979  0.08696618  1
  H  H506  1  0.73687010  0.88171532  0.41883444  1
  H  H507  1  0.71192098  0.83435387  0.26678322  1
  H  H508  1  0.54827901  0.91190628  0.24016843  1
  H  H509  1  0.57724513  0.89506772  0.08586610  1
  C  C510  1  0.73003346  0.97664396  0.04968849  1
  H  H511  1  0.51672552  0.98632098  0.04222195  1
  C  C512  1  0.65745222  0.85502163  0.14280676  1
  C  C513  1  0.66286737  0.92792459  0.01464724  1
  C  C514  1  0.54425199  0.69174115  0.79642959  1
  C  C515  1  0.70211806  0.54743595  0.60728240  1
  C  C516  1  0.58941784  0.69920214  0.84420178  1
  C  C517  1  0.71630774  0.54140268  0.74364564  1
  C  C518  1  0.61060558  0.65894329  0.89758973  1
  H  H519  1  0.72583127  0.57069838  0.80693089  1
  H  H520  1  0.64740214  0.66079810  0.91793986  1
  C  C521  1  0.54309862  0.61661034  0.89955901  1
  C  C522  1  0.58917767  0.61805686  0.93111060  1
  C  C523  1  0.61272125  0.55791659  0.69316617  1
  O  O524  1  0.68223342  0.72187862  0.73504205  1
  H  H525  1  0.64528461  0.55370109  0.74566671  1
  O  O526  1  0.61481372  0.59778601  0.61671351  1
  H  H527  1  0.58360870  0.55861220  0.76624119  1
  H  H528  1  0.52743476  0.71952794  0.74049133  1
  C  C529  1  0.51985583  0.65381658  0.83174581  1
  H  H530  1  0.60864402  0.52500232  0.63329464  1
  C  C531  1  0.65163254  0.61403932  0.55397868  1
  C  C532  1  0.69579180  0.59631124  0.54508118  1
  C  C533  1  0.72574598  0.73913155  0.68665210  1
  C  C534  1  0.51325754  0.57722716  0.91730384  1
  C  C535  1  0.61038749  0.74627313  0.82013060  1
  H  H536  1  0.60745824  0.58760410  0.98256896  1
  C  C537  1  0.68850760  0.50933492  0.52410440  1
  C  C538  1  0.52941330  0.73776579  0.53555905  1
  H  H539  1  0.74378865  0.63664635  0.71659713  1
  H  H540  1  0.74692198  0.71092752  0.65516934  1
  C  C541  1  0.60821311  0.73097247  0.50193594  1
  C  C542  1  0.52356519  0.69069300  0.51947936  1
  C  C543  1  0.56095218  0.66258136  0.50680154  1
  O  O544  1  0.52543383  0.54031962  0.97031914  1
  H  H545  1  0.72009571  0.72300916  0.97414191  1
  C  C546  1  0.73251104  0.87583788  0.52948922  1
  C  C547  1  0.50052702  0.84547615  0.83771134  1
  H  H548  1  0.74700070  0.75971716  0.76072499  1
  C  C549  1  0.57575967  0.77759636  0.83872802  1
  C  C550  1  0.58161399  0.82433607  0.80200241  1
  H  H551  1  0.55515511  0.96714216  0.55548369  1
  C  C552  1  0.54131131  0.98898302  0.83706399  1
  C  C553  1  0.65371427  0.75454554  0.76063617  1
  H  H554  1  0.72603695  0.76278266  0.59398683  1
  C  C555  1  0.74905292  0.89234092  0.77163596  1
  H  H556  1  0.61079172  0.87959376  0.98186902  1
  C  C557  1  0.72153454  0.85666820  0.81052015  1
  H  H558  1  0.71692986  0.84858996  0.92081957  1
  C  C559  1  0.52518972  0.93921647  0.82213890  1
  C  C560  1  0.62460659  0.83773406  0.76469290  1
  C  C561  1  0.65798886  0.80269423  0.74504041  1
  H  H562  1  0.54287083  0.76751802  0.89066641  1
  C  C563  1  0.57183620  0.99804523  0.60176691  1
  H  H564  1  0.62909023  0.87431130  0.74977733  1
  C  C565  1  0.69892010  0.83016013  0.70734280  1
  C  C566  1  0.54442770  0.85849315  0.81219111  1
  H  H567  1  0.59384903  0.91555177  0.80216637  1
  C  C568  1  0.55752358  0.90625977  0.80964472  1
  C  C569  1  0.70177248  0.84327157  0.56518850  1
  H  H570  1  0.65041454  0.95173206  0.93495799  1
  O  O571  1  0.50162423  0.81363405  0.57394939  1
  H  H572  1  0.57563539  0.79445410  0.57301849  1
  C  C573  1  0.57253568  0.75914948  0.53585135  1
  C  C574  1  0.83868376  0.07522542  0.22728168  1
  C  C575  1  0.83892571  0.12298418  0.26764333  1
  C  C576  1  0.82751472  0.15660218  0.16987351  1
  H  H577  1  0.80969244  0.22831837  0.12431180  1
  C  C578  1  0.81846204  0.20245141  0.20026386  1
  O  O579  1  0.85108185  0.04419931  0.31257839  1
  C  C580  1  0.82265022  0.21390648  0.34353503  1
  O  O581  1  0.83035260  0.06384095  0.10309978  1
  H  H582  1  0.82440485  0.14368365  0.06332844  1
  H  H583  1  0.94560281  0.01576526  0.07717796  1
  C  C584  1  0.84833497  0.13725677  0.40690109  1
  Cu  Cu585  1  0.82761008  0.00335603  0.01605441  1
  C  C586  1  0.83988005  0.18242468  0.44579585  1
  H  H587  1  0.85677832  0.11029956  0.48666926  1
  H  H588  1  0.88819645  0.24543478  0.37699097  1
  C  C589  1  0.80199776  0.42313940  0.41219657  1
  O  O590  1  0.85589230  0.31157695  0.38706551  1
  C  C591  1  0.88252446  0.27996394  0.31695963  1
  H  H592  1  0.91569619  0.29242431  0.27404888  1
  H  H593  1  0.80636365  0.38605762  0.21510609  1
  C  C594  1  0.82151179  0.46223652  0.05498533  1
  C  C595  1  0.77664431  0.32909883  0.43796690  1
  H  H596  1  0.80812055  0.45636221  0.46258562  1
  O  O597  1  0.82400850  0.31126797  0.07851517  1
  H  H598  1  0.85980466  0.26940938  0.22931451  1
  C  C599  1  0.81035745  0.42052860  0.27322128  1
  C  C600  1  0.79409098  0.25412986  0.39528612  1
  C  C601  1  0.81170041  0.29977664  0.40277953  1
  H  H602  1  0.90840208  0.33369994  0.07433925  1
  C  C603  1  0.81861499  0.46318541  0.19873196  1
  C  C604  1  0.78774152  0.38105696  0.49021014  1
  H  H605  1  0.83810585  0.19164058  0.55346297  1
  H  H606  1  0.91235909  0.24914214  0.67585886  1
  O  O607  1  0.88325966  0.02098232  0.92719664  1
  C  C608  1  0.90909959  0.00132683  0.84007962  1
  C  C609  1  0.90732285  0.34627877  0.97096470  1
  O  O610  1  0.78972188  0.32164824  0.88078717  1
  C  C611  1  0.93139287  0.28066649  0.69553234  1
  H  H612  1  0.98084966  0.35174005  0.96468644  1
  C  C613  1  0.99152010  0.36171594  0.68347491  1
  C  C614  1  0.82504665  0.32302099  0.96107403  1
  C  C615  1  0.86662981  0.35792800  0.75753322  1
  O  O616  1  0.82392903  0.46265722  0.93381699  1
  H  H617  1  0.77407418  0.41760280  0.69838817  1
  C  C618  1  0.90584768  0.37350159  0.69319115  1
  C  C619  1  0.94796243  0.36939700  0.76245508  1
  H  H620  1  0.91182759  0.30497012  0.62051945  1
  C  C621  1  0.77648479  0.39154861  0.62282105  1
  C  C622  1  0.94892982  0.35412726  0.90481931  1
  O  O623  1  0.97776491  0.27701837  0.65323907  1
  H  H624  1  0.90606658  0.37844195  0.58140494  1
  H  H625  1  0.92709600  0.29472538  0.80200124  1
  C  C626  1  0.86771046  0.34338007  0.89463567  1
  H  H627  1  0.83420111  0.35493433  0.69770202  1
  C  C628  1  0.84314741  0.66434808  0.25617796  1
  C  C629  1  0.85194724  0.71191467  0.23367217  1
  C  C630  1  0.87492407  0.62404150  0.25056043  1
  C  C631  1  0.89746363  0.61170211  0.12545968  1
  O  O632  1  0.89293615  0.72493911  0.19560453  1
  C  C633  1  0.93028179  0.57762001  0.13140811  1
  C  C634  1  0.81229333  0.73904570  0.25664314  1
  Cu  Cu635  1  0.93404745  0.68759137  0.42061026  1
  C  C636  1  0.88372022  0.60255356  0.38013130  1
  C  C637  1  0.80374278  0.64607748  0.30456224  1
  C  C638  1  0.91663165  0.56981551  0.38211156  1
  C  C639  1  0.93974310  0.55906565  0.25980893  1
  H  H640  1  0.80242751  0.60665029  0.31603057  1
  C  C641  1  0.77256939  0.72263372  0.30701537  1
  H  H642  1  0.81149574  0.70258934  0.06205610  1
  C  C643  1  0.76618103  0.67460620  0.33010597  1
  H  H644  1  0.97593742  0.65663029  0.11235465  1
  H  H645  1  0.83817027  0.54023380  0.20648498  1
  O  O646  1  0.81406450  0.52037358  0.38204126  1
  C  C647  1  0.82108830  0.50975368  0.26644688  1
  O  O648  1  0.75811239  0.56702027  0.03006109  1
  H  H649  1  0.76327619  0.58959008  0.45502938  1
  H  H650  1  0.94447642  0.56420507  0.03912952  1
  H  H651  1  0.88867209  0.62775582  0.02029008  1
  O  O652  1  0.99158251  0.68690711  0.35343064  1
  O  O653  1  0.98766662  0.50084926  0.14642399  1
  C  C654  1  0.97080706  0.51787845  0.26346660  1
  O  O655  1  0.98468440  0.50502358  0.37079344  1
  H  H656  1  0.86665384  0.61488597  0.47364921  1
  H  H657  1  0.92280000  0.54859000  0.48029358  1
  H  H658  1  0.99019279  0.83376927  0.07390348  1
  Cu  Cu659  1  0.82199201  0.99446010  0.37984220  1
  C  C660  1  0.81158742  0.81352993  0.09971665  1
  H  H661  1  0.75741063  0.91280465  0.23176173  1
  O  O662  1  0.78956182  0.94905717  0.46896601  1
  C  C663  1  0.82421719  0.81856395  0.35020116  1
  O  O664  1  0.76964287  0.98431109  0.10525098  1
  H  H665  1  0.84162283  0.88783590  0.42301102  1
  O  O666  1  0.85571577  0.94805241  0.07038897  1
  H  H667  1  0.93811933  0.78308150  0.17287150  1
  H  H668  1  0.88262685  0.78940031  0.10454052  1
  H  H669  1  0.82796929  0.80009610  0.44964108  1
  C  C670  1  0.83281885  0.86533903  0.34018944  1
  C  C671  1  0.81795338  0.85964108  0.09488047  1
  C  C672  1  0.81368534  0.79107183  0.23435368  1
  H  H673  1  0.80559045  0.79337771  0.00824896  1
  H  H674  1  0.95444333  0.91485214  0.33598311  1
  C  C675  1  0.85063093  0.93139675  0.19067119  1
  C  C676  1  0.83388386  0.88529487  0.20826541  1
  C  C677  1  0.90251244  0.77345807  0.19067502  1
  C  C678  1  0.96617258  0.99235056  0.01456059  1
  H  H679  1  0.89088093  0.78730162  0.29025232  1
  C  C680  1  0.99000315  0.91258020  0.36495835  1
  O  O681  1  0.86019447  0.95314682  0.30097746  1
  O  O682  1  0.99000697  0.83425365  0.37350772  1
  H  H683  1  0.99898467  0.89042977  0.12275193  1
  C  C684  1  0.88453734  0.70484408  0.65025559  1
  C  C685  1  0.84542718  0.68986170  0.73087946  1
  C  C686  1  0.80771754  0.66863591  0.67227782  1
  C  C687  1  0.84646480  0.70226790  0.86971826  1
  O  O688  1  0.91551904  0.72828865  0.69887015  1
  Cu  Cu689  1  0.96885307  0.72248896  0.62908727  1
  H  H690  1  0.87730393  0.72044682  0.91519981  1
  C  C691  1  0.77345956  0.66627037  0.90185435  1
  C  C692  1  0.77372256  0.65561123  0.75799985  1
  H  H693  1  0.79132516  0.57839108  0.83541823  1
  H  H694  1  0.80774881  0.66383908  0.55928883  1
  C  C695  1  0.81085274  0.69125064  0.95208656  1
  C  C696  1  0.79791166  0.56851880  0.93943608  1
  H  H697  1  0.81676994  0.53491573  0.93708783  1
  H  H698  1  0.98136960  0.74645399  0.98884039  1
  O  O699  1  0.88583090  0.68735223  0.53062591  1
  H  H700  1  0.81785054  0.59741481  0.98493238  1
  C  C701  1  0.94893964  0.79810041  0.87496780  1
  C  C702  1  0.75593904  0.90219772  0.63259500  1
  Cu  Cu703  1  0.87425369  0.94190806  0.66334196  1
  H  H704  1  0.76786685  0.91440675  0.84727739  1
  C  C705  1  0.98144369  0.95728325  0.79013131  1
  O  O706  1  0.91921489  0.89728057  0.66893168  1
  C  C707  1  0.95130533  0.98070552  0.87811705  1
  C  C708  1  0.95464459  0.83394319  0.77791193  1
  C  C709  1  0.78729373  0.93907660  0.59423989  1
  O  O710  1  0.81448728  0.95423556  0.68127657  1
  C  C711  1  0.99312027  0.84283931  0.69919436  1
  C  C712  1  0.98683491  0.77266555  0.90402721  1
  H  H713  1  0.99424326  0.87043515  0.62068450  1
  C  C714  1  0.91534983  0.86462868  0.75708080  1
  H  H715  1  0.92022574  0.79443251  0.93787927  1
  O  O716  1  0.88036119  0.85882611  0.81947735  1
  O  O717  1  0.89773724  0.99816710  0.71404253  1
  H  H718  1  0.97260513  0.95437707  0.67842573  1
  H  H719  1  0.81583599  0.87477671  0.99106206  1
