# generated using pymatgen
data_CuH13C21O5
_symmetry_space_group_name_H-M   'P 1'
_cell_length_a   33.90208050
_cell_length_b   34.70345786
_cell_length_c   7.41253516
_cell_angle_alpha   90.00000000
_cell_angle_beta   90.00000000
_cell_angle_gamma   90.00000000
_symmetry_Int_Tables_number   1
_chemical_formula_structural   CuH13C21O5
_chemical_formula_sum   'Cu18 H234 C378 O90'
_cell_volume   8720.99158073
_cell_formula_units_Z   18
loop_
 _symmetry_equiv_pos_site_id
 _symmetry_equiv_pos_as_xyz
  1  'x, y, z'
loop_
 _atom_site_type_symbol
 _atom_site_label
 _atom_site_symmetry_multiplicity
 _atom_site_fract_x
 _atom_site_fract_y
 _atom_site_fract_z
 _atom_site_occupancy
  O  O0  1  0.03553236  0.04028536  0.17943182  1
  H  H1  1  0.12602403  0.10705620  0.20141111  1
  C  C2  1  0.04622068  0.05322263  0.33072882  1
  C  C3  1  0.11629996  0.08288969  0.30169022  1
  O  O4  1  0.18610304  0.03993803  0.07443887  1
  H  H5  1  0.04498996  0.19889381  0.25994793  1
  H  H6  1  0.09104756  0.19501311  0.38781774  1
  C  C7  1  0.05789359  0.18805160  0.39131332  1
  C  C8  1  0.09928336  0.19845370  0.03308731  1
  C  C9  1  0.08395117  0.07502328  0.35179099  1
  C  C10  1  0.10836080  0.23156984  0.13685329  1
  H  H11  1  0.13918903  0.23270987  0.19750661  1
  C  C12  1  0.23912268  0.16613230  0.01283938  1
  C  C13  1  0.16478500  0.18090591  0.01269209  1
  H  H14  1  0.16661714  0.21188964  0.04970592  1
  O  O15  1  0.03328269  0.04166872  0.47753982  1
  H  H16  1  0.05312301  0.15611198  0.40794445  1
  C  C17  1  0.12693722  0.16588520  0.00320853  1
  H  H18  1  0.23811055  0.27464068  0.06838274  1
  C  C19  1  0.23197473  0.33945222  0.41764268  1
  C  C20  1  0.04703620  0.46561962  0.45563279  1
  C  C21  1  0.08596517  0.26359893  0.16691326  1
  O  O22  1  0.24720932  0.45837588  0.04744244  1
  C  C23  1  0.17785363  0.46672222  0.02147842  1
  Cu  Cu24  1  0.00506965  0.35915028  0.33026506  1
  C  C25  1  0.10552409  0.47361882  0.00765417  1
  C  C26  1  0.20222899  0.44676938  0.47455684  1
  O  O27  1  0.03748169  0.32198930  0.21558217  1
  C  C28  1  0.01020210  0.47598020  0.37678084  1
  C  C29  1  0.21689016  0.47701807  0.08778180  1
  H  H30  1  0.18261490  0.39952377  0.30277431  1
  H  H31  1  0.18113821  0.46816695  0.42375364  1
  C  C32  1  0.02197577  0.29434197  0.12738483  1
  H  H33  1  0.08023158  0.48916311  0.05918760  1
  C  C34  1  0.14239972  0.48640844  0.06691519  1
  H  H35  1  0.09727027  0.28967770  0.24899416  1
  O  O36  1  0.01416777  0.41149511  0.25384694  1
  C  C37  1  0.20369578  0.40733121  0.41313700  1
  C  C38  1  0.04803012  0.26143530  0.08961797  1
  O  O39  1  0.20461909  0.32806942  0.33151413  1
  C  C40  1  0.23247579  0.38177103  0.47785141  1
  H  H41  1  0.05342010  0.43547755  0.46286519  1
  C  C42  1  0.13854444  0.05778628  0.63567220  1
  H  H43  1  0.11463326  0.11283509  0.55981048  1
  H  H44  1  0.13708619  0.02665498  0.60012668  1
  C  C45  1  0.15579932  0.06691308  0.79941469  1
  H  H46  1  0.07115606  0.06763924  0.69832482  1
  H  H47  1  0.05021586  0.17184596  0.90267275  1
  C  C48  1  0.18822585  0.21776283  0.60097408  1
  C  C49  1  0.11632587  0.08340939  0.51477580  1
  C  C50  1  0.22834580  0.20291703  0.60752641  1
  O  O51  1  0.23046156  0.16629924  0.63289013  1
  C  C52  1  0.15607171  0.19333069  0.63799855  1
  C  C53  1  0.11745390  0.20525648  0.64118790  1
  H  H54  1  0.16482833  0.16572894  0.68783922  1
  C  C55  1  0.15063749  0.10589353  0.89459034  1
  H  H56  1  0.09474757  0.18595153  0.68465731  1
  H  H57  1  0.21225756  0.09892929  0.87966315  1
  C  C58  1  0.18911916  0.11920686  0.91388770  1
  C  C59  1  0.06991443  0.07676342  0.84705906  1
  C  C60  1  0.11618884  0.12820901  0.93602344  1
  O  O61  1  0.03517189  0.20201600  0.54392473  1
  C  C62  1  0.03530760  0.23958670  0.59722655  1
  H  H63  1  0.00275617  0.22969751  0.93679746  1
  C  C64  1  0.17115275  0.03826993  0.92617376  1
  H  H65  1  0.04168356  0.06628616  0.88925458  1
  O  O66  1  0.07955276  0.11766304  0.92105295  1
  H  H67  1  0.17343834  0.00708975  0.88844819  1
  H  H68  1  0.09384677  0.06199197  0.92365339  1
  C  C69  1  0.10959758  0.24526637  0.59362249  1
  C  C70  1  0.03245569  0.22905243  0.99521921  1
  C  C71  1  0.05798405  0.19775271  0.97381247  1
  C  C72  1  0.19730216  0.15637306  0.97809423  1
  H  H73  1  0.23790723  0.22637421  0.93001203  1
  C  C74  1  0.09984415  0.44076567  0.89592808  1
  C  C75  1  0.00083257  0.26056719  0.64715936  1
  O  O76  1  0.03085864  0.48113177  0.88079054  1
  H  H77  1  0.17142095  0.49223433  0.66842830  1
  C  C78  1  0.06943725  0.49252205  0.54171798  1
  H  H79  1  0.09668359  0.48114273  0.60735765  1
  H  H80  1  0.09709578  0.31819431  0.70723175  1
  C  C81  1  0.06970243  0.30162828  0.67710224  1
  C  C82  1  0.06084091  0.42250668  0.84336940  1
  H  H83  1  0.13323487  0.39293029  0.77497433  1
  C  C84  1  0.13463734  0.42033847  0.85218332  1
  C  C85  1  0.17027935  0.43328607  0.91458942  1
  C  C86  1  0.06393957  0.38357345  0.79258383  1
  C  C87  1  0.02917025  0.36373179  0.75114408  1
  H  H88  1  0.19762627  0.41736224  0.87043325  1
  C  C89  1  0.03287713  0.32167692  0.70495693  1
  H  H90  1  0.13308937  0.29799019  0.53758729  1
  C  C91  1  0.06953455  0.26280317  0.62436466  1
  H  H92  1  0.09293160  0.37005214  0.79879492  1
  C  C93  1  0.02623639  0.44378750  0.83788332  1
  C  C94  1  0.23360783  0.45789535  0.59448364  1
  C  C95  1  0.18300838  0.25707112  0.57202588  1
  C  C96  1  0.14404194  0.26902236  0.56739511  1
  H  H97  1  0.20819296  0.27632826  0.53478466  1
  H  H98  1  0.17785483  0.68500568  0.28612326  1
  C  C99  1  0.20206713  0.69264654  0.19469951  1
  C  C100  1  0.20820105  0.73208410  0.16383623  1
  O  O101  1  0.19542248  0.61169603  0.24053664  1
  C  C102  1  0.08531866  0.66863552  0.36960941  1
  H  H103  1  0.07429705  0.57344628  0.29251712  1
  C  C104  1  0.08107443  0.60441752  0.27089735  1
  C  C105  1  0.07770454  0.63090847  0.41400029  1
  C  C106  1  0.22928018  0.66565065  0.12924675  1
  C  C107  1  0.22495623  0.62382119  0.16943970  1
  C  C108  1  0.09215707  0.68600199  0.20266446  1
  H  H109  1  0.14736771  0.51407797  0.14188160  1
  O  O110  1  0.22002322  0.50642958  0.19488372  1
  H  H111  1  0.09597161  0.71709821  0.18779649  1
  H  H112  1  0.02241754  0.61171282  0.12047687  1
  C  C113  1  0.08956461  0.61887252  0.09588206  1
  C  C114  1  0.09418595  0.65937273  0.06659858  1
  H  H115  1  0.00505197  0.53153096  0.00275339  1
  H  H116  1  0.00836832  0.57114390  0.47125279  1
  C  C117  1  0.01881681  0.54065634  0.47183666  1
  C  C118  1  0.24059122  0.74439055  0.05213017  1
  C  C119  1  0.13752292  0.80905583  0.45503803  1
  H  H120  1  0.07793039  0.79943632  0.39280353  1
  C  C121  1  0.05407507  0.87268502  0.27146185  1
  C  C122  1  0.10118692  0.82076080  0.39848723  1
  H  H123  1  0.18895102  0.89157863  0.38230212  1
  H  H124  1  0.08679141  0.89647792  0.02222532  1
  C  C125  1  0.17071845  0.83320255  0.43213833  1
  C  C126  1  0.05822950  0.89265823  0.09667576  1
  H  H127  1  0.18987563  0.75414397  0.23720812  1
  Cu  Cu128  1  0.03289534  0.99005423  0.07067660  1
  H  H129  1  0.14886323  0.84813433  0.02643941  1
  C  C130  1  0.21116944  0.82133833  0.46181798  1
  H  H131  1  0.15020272  0.96124594  0.12962276  1
  C  C132  1  0.12591363  0.88530215  0.32663585  1
  C  C133  1  0.18899047  0.91433940  0.04855795  1
  H  H134  1  0.20900276  0.91740037  0.16242401  1
  H  H135  1  0.11973006  0.91470673  0.27032002  1
  H  H136  1  0.11501746  0.80483763  0.02739238  1
  C  C137  1  0.02373899  0.90791729  0.04934998  1
  C  C138  1  0.09320711  0.85923134  0.33927839  1
  C  C139  1  0.16261577  0.87147694  0.38202454  1
  C  C140  1  0.15878716  0.93995276  0.02503179  1
  C  C141  1  0.01778519  0.86663745  0.35425778  1
  O  O142  1  0.23632445  0.84839090  0.43639244  1
  O  O143  1  0.08588601  0.98105940  0.00361515  1
  C  C144  1  0.24728524  0.78605015  0.01443941  1
  C  C145  1  0.06425430  0.58185786  0.81925862  1
  C  C146  1  0.14877680  0.56136965  0.76189847  1
  C  C147  1  0.07921603  0.55509753  0.68640701  1
  C  C148  1  0.11889525  0.54594841  0.64290455  1
  C  C149  1  0.19122553  0.55001900  0.72931961  1
  H  H150  1  0.22072673  0.60622753  0.79074881  1
  C  C151  1  0.22338256  0.57546954  0.74239549  1
  C  C152  1  0.13625821  0.58606221  0.89889023  1
  H  H153  1  0.10150549  0.66941665  0.93261489  1
  O  O154  1  0.02474307  0.59037635  0.84686611  1
  C  C155  1  0.09567778  0.59408768  0.92172471  1
  O  O156  1  0.09277588  0.68428774  0.69079119  1
  C  C157  1  0.19647698  0.51164254  0.66845631  1
  C  C158  1  0.05330828  0.53034699  0.56599589  1
  H  H159  1  0.12707703  0.53072021  0.51977168  1
  H  H160  1  0.07401716  0.62305298  0.55785398  1
  C  C161  1  0.23507021  0.50015104  0.63892842  1
  H  H162  1  0.03863547  0.64519534  0.95818194  1
  C  C163  1  0.01717646  0.61923706  0.97425756  1
  C  C164  1  0.08654454  0.69767304  0.53601423  1
  O  O165  1  0.07765501  0.73047390  0.50827656  1
  H  H166  1  0.15675556  0.59967584  0.98898988  1
  C  C167  1  0.14323827  0.81783705  0.96707021  1
  O  O168  1  0.17904284  0.79581266  0.98005266  1
  O  O169  1  0.00080987  0.97975143  0.66858447  1
  Cu  Cu170  1  0.05308352  0.99972178  0.62132738  1
  H  H171  1  0.06815938  0.87269247  0.63700165  1
  H  H172  1  0.12191641  0.90803335  0.61530263  1
  C  C173  1  0.19491690  0.88383487  0.91274634  1
  C  C174  1  0.22429661  0.85059289  0.94466248  1
  H  H175  1  0.13835121  0.82182707  0.82125223  1
  C  C176  1  0.09658771  0.96145474  0.86992299  1
  H  H177  1  0.17190654  0.85659157  0.66088740  1
  H  H178  1  0.04005462  0.85010849  0.79277025  1
  O  O179  1  0.01458424  0.84968734  0.52906367  1
  C  C180  1  0.04690181  0.84924864  0.64555568  1
  C  C181  1  0.17038080  0.88145285  0.75590423  1
  C  C182  1  0.13233028  0.93850090  0.87535287  1
  O  O183  1  0.07586302  0.95966940  0.72699841  1
  H  H184  1  0.14331724  0.77779939  0.50045842  1
  C  C185  1  0.14009616  0.91014981  0.73532611  1
  O  O186  1  0.22072848  0.78747012  0.50376817  1
  H  H187  1  0.06280944  0.82122630  0.62455874  1
  C  C188  1  0.21484891  0.81101677  0.97934924  1
  C  C189  1  0.37683090  0.17042762  0.30008622  1
  C  C190  1  0.29685955  0.08854669  0.33072568  1
  C  C191  1  0.31264778  0.05339878  0.38753603  1
  H  H192  1  0.40344697  0.18146802  0.37047167  1
  H  H193  1  0.36290573  0.15029210  0.40009342  1
  C  C194  1  0.31839585  0.11158784  0.20581183  1
  C  C195  1  0.34583833  0.04066755  0.29418548  1
  H  H196  1  0.46680013  0.01009085  0.43362183  1
  C  C197  1  0.30190923  0.15018534  0.14517718  1
  O  O198  1  0.35084522  0.19962469  0.24149297  1
  C  C199  1  0.31774189  0.18792049  0.16122121  1
  H  H200  1  0.25478666  0.10619028  0.08992434  1
  C  C201  1  0.36407853  0.06116106  0.14526271  1
  C  C202  1  0.26529570  0.13721936  0.07996352  1
  H  H203  1  0.43948606  0.00032205  0.00200221  1
  C  C204  1  0.49144743  0.02905002  0.44737406  1
  H  H205  1  0.26741367  0.09812518  0.38136594  1
  C  C206  1  0.29178813  0.21519187  0.08106348  1
  H  H207  1  0.38650633  0.15206727  0.18147272  1
  C  C208  1  0.35104346  0.09744612  0.09831042  1
  C  C209  1  0.25577659  0.20441817  0.00139980  1
  H  H210  1  0.38732555  0.04791328  0.06301581  1
  C  C211  1  0.36061429  0.00313159  0.34496568  1
  H  H212  1  0.36600152  0.24880308  0.06660716  1
  H  H213  1  0.29752967  0.03346682  0.48695994  1
  C  C214  1  0.32735718  0.37790539  0.12375967  1
  O  O215  1  0.32973292  0.49129004  0.07038319  1
  C  C216  1  0.34232535  0.27024033  0.06034475  1
  C  C217  1  0.31674593  0.33647325  0.09536611  1
  H  H218  1  0.40085999  0.48415590  0.02911430  1
  H  H219  1  0.25275666  0.34310081  0.10616599  1
  C  C220  1  0.27696010  0.32336601  0.08768487  1
  C  C221  1  0.26952942  0.28394168  0.07278592  1
  Cu  Cu222  1  0.29700439  0.45372390  0.18126890  1
  O  O223  1  0.29993747  0.40437242  0.10695266  1
  C  C224  1  0.30159932  0.25708627  0.06566785  1
  O  O225  1  0.36170902  0.38688050  0.15146965  1
  C  C226  1  0.34880034  0.30984955  0.06897181  1
  O  O227  1  0.25892931  0.31186066  0.49182102  1
  H  H228  1  0.37891053  0.32176861  0.05757863  1
  O  O229  1  0.32094886  0.12601223  0.74037881  1
  C  C230  1  0.35228418  0.14482850  0.71737156  1
  O  O231  1  0.35093296  0.18093721  0.69329284  1
  C  C232  1  0.38904895  0.12324316  0.67702447  1
  C  C233  1  0.42236406  0.14410932  0.66045475  1
  Cu  Cu234  1  0.30746104  0.20696350  0.64531851  1
  C  C235  1  0.38548496  0.08332286  0.65752585  1
  H  H236  1  0.35673237  0.06854343  0.65743467  1
  Cu  Cu237  1  0.27530022  0.14265170  0.68033800  1
  H  H238  1  0.48784930  0.11767936  0.88608949  1
  H  H239  1  0.36275356  0.11365641  0.97965671  1
  C  C240  1  0.49389565  0.13277000  0.75550331  1
  C  C241  1  0.46048174  0.12664882  0.62392503  1
  H  H242  1  0.41931437  0.17643957  0.65920761  1
  C  C243  1  0.42126527  0.06500114  0.61757424  1
  H  H244  1  0.41710905  0.03439064  0.59457962  1
  C  C245  1  0.45789545  0.08341249  0.59937456  1
  H  H246  1  0.49738129  0.01844784  0.78029336  1
  H  H247  1  0.49779730  0.16305286  0.78755946  1
  C  C248  1  0.49504833  0.06559592  0.55287929  1
  O  O249  1  0.25922200  0.22362979  0.60265729  1
  H  H250  1  0.47225409  0.14266287  0.50369320  1
  H  H251  1  0.28138559  0.32882416  0.51641597  1
  C  C252  1  0.26286397  0.39313999  0.60427273  1
  C  C253  1  0.26499016  0.43209786  0.64950044  1
  H  H254  1  0.28741117  0.44080811  0.74159574  1
  H  H255  1  0.28067330  0.37271136  0.67869320  1
  H  H256  1  0.47129789  0.69132194  0.21139512  1
  H  H257  1  0.30613605  0.64297926  0.28711980  1
  O  O258  1  0.37785240  0.66140945  0.24188775  1
  H  H259  1  0.46789600  0.63967373  0.11885475  1
  C  C260  1  0.31159700  0.63093368  0.42658833  1
  C  C261  1  0.42373897  0.58740845  0.17577239  1
  C  C262  1  0.38498056  0.57621700  0.18975542  1
  H  H263  1  0.42847309  0.61763111  0.21139822  1
  H  H264  1  0.36171348  0.59569647  0.24338565  1
  C  C265  1  0.45691351  0.56476174  0.11351880  1
  C  C266  1  0.37606359  0.53887778  0.12456995  1
  O  O267  1  0.30739406  0.54287092  0.20213129  1
  C  C268  1  0.33455182  0.52526344  0.13455201  1
  C  C269  1  0.44476621  0.52538608  0.06885557  1
  O  O270  1  0.25327901  0.60142980  0.11897253  1
  Cu  Cu271  1  0.25381647  0.54567564  0.16271737  1
  H  H272  1  0.25389394  0.60119261  0.45544807  1
  C  C273  1  0.40645328  0.51320085  0.07189975  1
  C  C274  1  0.43808145  0.73108847  0.45169821  1
  C  C275  1  0.38123117  0.65252401  0.39725408  1
  H  H276  1  0.46672938  0.50360380  0.02956679  1
  C  C277  1  0.49546556  0.58352599  0.09827247  1
  C  C278  1  0.49584741  0.62383820  0.10966473  1
  O  O279  1  0.41697769  0.65519441  0.48244544  1
  C  C280  1  0.26166039  0.67709163  0.01920593  1
  H  H281  1  0.49243338  0.91880353  0.04834400  1
  C  C282  1  0.46222471  0.75619917  0.34363040  1
  H  H283  1  0.44930094  0.90567824  0.18964155  1
  C  C284  1  0.39227274  0.95458356  0.14125371  1
  C  C285  1  0.47631620  0.89357544  0.11350008  1
  H  H286  1  0.48656663  0.83065708  0.34646302  1
  C  C287  1  0.40994907  0.92971297  0.01813534  1
  O  O288  1  0.34740729  0.98244654  0.45184337  1
  O  O289  1  0.39456918  0.98948519  0.19184379  1
  Cu  Cu290  1  0.28791528  0.84053494  0.42443043  1
  C  C291  1  0.34638331  0.79139722  0.48693720  1
  C  C292  1  0.38547781  0.77867426  0.43484730  1
  H  H293  1  0.39860262  0.83149603  0.27176366  1
  C  C294  1  0.40925869  0.80377598  0.32702130  1
  H  H295  1  0.46017351  0.80569369  0.15714216  1
  O  O296  1  0.33760512  0.82480334  0.43728611  1
  H  H297  1  0.36689558  0.94245876  0.22299454  1
  C  C298  1  0.44430110  0.79004182  0.26556562  1
  H  H299  1  0.38400312  0.75184062  0.01318649  1
  H  H300  1  0.31091978  0.77688964  0.02945388  1
  C  C301  1  0.28671322  0.79693789  0.00132591  1
  C  C302  1  0.32895437  0.60009780  0.77274004  1
  H  H303  1  0.38707996  0.62282026  0.74580618  1
  C  C304  1  0.46608784  0.71882915  0.82266710  1
  O  O305  1  0.46839676  0.65164640  0.75225750  1
  C  C306  1  0.35750853  0.62211993  0.68444445  1
  O  O307  1  0.48191757  0.57721221  0.63639503  1
  H  H308  1  0.33487750  0.58579141  0.89937081  1
  H  H309  1  0.38355917  0.72331618  0.58570416  1
  C  C310  1  0.42608906  0.71705051  0.87645790  1
  C  C311  1  0.48613568  0.68407429  0.75512028  1
  Cu  Cu312  1  0.45285288  0.61753632  0.55890664  1
  H  H313  1  0.34663570  0.54056965  0.75137002  1
  C  C314  1  0.29143294  0.59374124  0.68920255  1
  C  C315  1  0.34905608  0.63735772  0.51263063  1
  C  C316  1  0.27013953  0.52320078  0.64189694  1
  C  C317  1  0.34074898  0.52944359  0.61241554  1
  H  H318  1  0.29725141  0.72741469  0.92351123  1
  O  O319  1  0.30575725  0.50729599  0.61277101  1
  C  C320  1  0.26065676  0.56168934  0.69562556  1
  H  H321  1  0.41227916  0.68913479  0.87678060  1
  H  H322  1  0.45217298  0.70488169  0.50981350  1
  H  H323  1  0.36784432  0.51457063  0.56539070  1
  H  H324  1  0.28137669  0.65520919  0.95934247  1
  C  C325  1  0.26803665  0.71556990  0.98501542  1
  C  C326  1  0.28229630  0.60912884  0.51431444  1
  H  H327  1  0.33988764  0.55420850  0.51559410  1
  C  C328  1  0.40054241  0.74457731  0.50607091  1
  C  C329  1  0.49541519  0.96156045  0.66731918  1
  C  C330  1  0.48906864  0.75231871  0.80819387  1
  O  O331  1  0.32311178  0.77202932  0.59128777  1
  C  C332  1  0.40769996  0.82435379  0.91475692  1
  C  C333  1  0.40982104  0.75186245  0.92187442  1
  C  C334  1  0.26342594  0.86108198  0.92912552  1
  C  C335  1  0.39420589  0.88868094  0.99103735  1
  C  C336  1  0.33863686  0.84754310  0.94971543  1
  C  C337  1  0.29600264  0.83599396  0.95301361  1
  C  C338  1  0.35351385  0.88518139  0.97374310  1
  C  C339  1  0.42463796  0.85989156  0.97533931  1
  C  C340  1  0.43104966  0.78808800  0.89325296  1
  C  C341  1  0.47054683  0.78698511  0.83816936  1
  H  H342  1  0.45545645  0.92024975  0.81514056  1
  H  H343  1  0.36021234  0.79035273  0.85659004  1
  C  C344  1  0.36791473  0.81866015  0.92429062  1
  H  H345  1  0.49016734  0.81317114  0.82976984  1
  C  C346  1  0.48559545  0.98926407  0.78878617  1
  C  C347  1  0.44068076  0.94208824  0.90491865  1
  C  C348  1  0.45505072  0.97903168  0.91694323  1
  H  H349  1  0.27093720  0.89093963  0.89757489  1
  Cu  Cu350  1  0.27231419  0.77771747  0.56256224  1
  O  O351  1  0.46336977  0.86320411  0.99829896  1
  H  H352  1  0.33316683  0.91011115  0.98529063  1
  H  H353  1  0.48920079  0.79675296  0.53499366  1
  C  C354  1  0.63339098  0.06755275  0.24795114  1
  H  H355  1  0.65361351  0.07600414  0.34825702  1
  C  C356  1  0.52918806  0.01942641  0.43481409  1
  H  H357  1  0.59299511  0.01079150  0.42437386  1
  H  H358  1  0.55328892  0.10573275  0.27489474  1
  H  H359  1  0.74053253  0.13472605  0.20159962  1
  C  C360  1  0.59037013  0.16850486  0.17583083  1
  O  O361  1  0.55266756  0.16332204  0.18979279  1
  C  C362  1  0.60915608  0.20605725  0.17229219  1
  C  C363  1  0.58666450  0.24219018  0.22943127  1
  C  C364  1  0.63151564  0.02919094  0.19822137  1
  C  C365  1  0.53598284  0.12554228  0.19668035  1
  C  C366  1  0.56808268  0.02846178  0.46247613  1
  H  H367  1  0.69205400  0.00294758  0.45402216  1
  H  H368  1  0.64653774  0.00459861  0.27015457  1
  C  C369  1  0.64925498  0.21411088  0.16497283  1
  H  H370  1  0.50494294  0.12868343  0.25273858  1
  H  H371  1  0.66023157  0.24409265  0.18808822  1
  C  C372  1  0.71886112  0.19305063  0.14461796  1
  C  C373  1  0.67599973  0.18295518  0.13499199  1
  C  C374  1  0.73014651  0.23184829  0.12472977  1
  C  C375  1  0.56776527  0.24072730  0.39757504  1
  C  C376  1  0.61913503  0.13964556  0.14353480  1
  C  C377  1  0.66012807  0.14607762  0.11005605  1
  C  C378  1  0.61378321  0.09628377  0.13938708  1
  H  H379  1  0.67686988  0.12073732  0.07697833  1
  C  C380  1  0.74738136  0.16528924  0.19557619  1
  H  H381  1  0.56774200  0.21477576  0.48422143  1
  C  C382  1  0.60318935  0.02200353  0.06533731  1
  H  H383  1  0.53400665  0.11343092  0.05494313  1
  H  H384  1  0.74341841  0.37457437  0.18083220  1
  O  O385  1  0.53042665  0.37187039  0.30543351  1
  C  C386  1  0.56455102  0.49946163  0.10104467  1
  H  H387  1  0.63508332  0.33331389  0.34083269  1
  C  C388  1  0.74729423  0.47284931  0.44296894  1
  C  C389  1  0.55114106  0.30762917  0.34473777  1
  C  C390  1  0.57220833  0.30829392  0.18095023  1
  C  C391  1  0.52527962  0.34392280  0.40334605  1
  H  H392  1  0.57333599  0.33526657  0.10385435  1
  H  H393  1  0.71005573  0.25451535  0.09133685  1
  H  H394  1  0.56259918  0.47119380  0.16289180  1
  C  C395  1  0.55079799  0.27561675  0.46098912  1
  C  C396  1  0.59156563  0.27467158  0.11660240  1
  H  H397  1  0.73940943  0.30533956  0.32557493  1
  H  H398  1  0.64246559  0.26526756  0.45187439  1
  C  C399  1  0.67313824  0.47380664  0.49583736  1
  C  C400  1  0.70847506  0.45294195  0.47897333  1
  C  C401  1  0.65430670  0.32730315  0.45870845  1
  H  H402  1  0.73142501  0.39561529  0.49260397  1
  H  H403  1  0.56248488  0.04073267  0.83861346  1
  H  H404  1  0.69780845  0.04848531  0.72424471  1
  H  H405  1  0.58016373  0.11133681  0.90336310  1
  C  C406  1  0.58305822  0.04817452  0.95125661  1
  C  C407  1  0.58968406  0.08640817  0.99073886  1
  O  O408  1  0.73366573  0.22544701  0.68586807  1
  C  C409  1  0.67294159  0.06687850  0.68635262  1
  O  O410  1  0.53216701  0.11547333  0.69941853  1
  C  C411  1  0.72485876  0.11650879  0.63690421  1
  C  C412  1  0.68293155  0.10437504  0.63300489  1
  C  C413  1  0.69930143  0.23775689  0.63166492  1
  O  O414  1  0.72985586  0.15081685  0.58301492  1
  O  O415  1  0.67434930  0.21555918  0.58235768  1
  C  C416  1  0.65668831  0.13267237  0.57217783  1
  C  C417  1  0.60644372  0.08331531  0.59481874  1
  H  H418  1  0.62610009  0.02519928  0.68403046  1
  C  C419  1  0.63412649  0.05598992  0.67182995  1
  C  C420  1  0.53105259  0.08233366  0.60525300  1
  H  H421  1  0.59277039  0.14298717  0.50154325  1
  C  C422  1  0.56758317  0.06556990  0.55025480  1
  C  C423  1  0.61756331  0.12248701  0.55252059  1
  H  H424  1  0.66523564  0.16323881  0.54234037  1
  H  H425  1  0.72605502  0.36962137  0.73618096  1
  H  H426  1  0.56185031  0.35949500  0.71038107  1
  C  C427  1  0.56553425  0.48126388  0.65171748  1
  C  C428  1  0.66686174  0.39827927  0.54874970  1
  H  H429  1  0.57359025  0.49589926  0.95541208  1
  O  O430  1  0.50462268  0.34587677  0.54161334  1
  C  C431  1  0.63179103  0.41886873  0.59551817  1
  C  C432  1  0.63610788  0.45896403  0.54909689  1
  H  H433  1  0.74307696  0.30389032  0.79084314  1
  H  H434  1  0.53583797  0.27790652  0.59109598  1
  H  H435  1  0.55710365  0.45352497  0.68614832  1
  C  C436  1  0.66108024  0.28898465  0.50588834  1
  C  C437  1  0.71097338  0.34673424  0.66362174  1
  C  C438  1  0.59370328  0.36022550  0.67327829  1
  C  C439  1  0.71960375  0.30856826  0.69500841  1
  C  C440  1  0.60356005  0.48690182  0.57181380  1
  O  O441  1  0.59895982  0.40454977  0.65623590  1
  C  C442  1  0.70414135  0.41248918  0.50590047  1
  C  C443  1  0.69462036  0.28048693  0.61366329  1
  C  C444  1  0.67798182  0.35552610  0.54919764  1
  H  H445  1  0.61169349  0.34880462  0.77735214  1
  H  H446  1  0.59587109  0.34174033  0.55492076  1
  H  H447  1  0.60800007  0.27526356  0.98722986  1
  H  H448  1  0.62877991  0.61139109  0.27602260  1
  C  C449  1  0.63739204  0.59197302  0.15872037  1
  C  C450  1  0.53473740  0.68656441  0.14803173  1
  H  H451  1  0.59345821  0.69625338  0.06400514  1
  C  C452  1  0.56895195  0.70954468  0.14444807  1
  H  H453  1  0.70150238  0.60504128  0.16683262  1
  C  C454  1  0.64105607  0.73805963  0.13036373  1
  C  C455  1  0.67756060  0.58830471  0.11380202  1
  C  C456  1  0.57185201  0.74665266  0.21985330  1
  C  C457  1  0.53140155  0.64360342  0.11619475  1
  C  C458  1  0.56750471  0.62323549  0.09894350  1
  C  C459  1  0.52903899  0.55877899  0.08879785  1
  O  O460  1  0.52797637  0.52096488  0.10198421  1
  H  H461  1  0.70300187  0.72900803  0.07498841  1
  H  H462  1  0.63547898  0.71652879  0.03353391  1
  H  H463  1  0.59626422  0.63929829  0.10242963  1
  C  C464  1  0.60668604  0.57328601  0.05969463  1
  C  C465  1  0.56339360  0.58304814  0.08068695  1
  H  H466  1  0.67660632  0.50313053  0.45489034  1
  H  H467  1  0.73273599  0.58117018  0.39091875  1
  C  C468  1  0.50321436  0.74272737  0.28863217  1
  H  H469  1  0.63708672  0.52983969  0.40476304  1
  H  H470  1  0.58864888  0.57782300  0.41870520  1
  H  H471  1  0.58874358  0.51846795  0.17267464  1
  C  C472  1  0.50056935  0.70648270  0.20876495  1
  C  C473  1  0.60959376  0.52254950  0.47978986  1
  C  C474  1  0.67985882  0.74763836  0.14033667  1
  H  H475  1  0.74566677  0.65189399  0.38464016  1
  C  C476  1  0.58143212  0.55112300  0.48971172  1
  C  C477  1  0.61133503  0.76416379  0.21282224  1
  H  H478  1  0.50046456  0.88261646  0.20576400  1
  C  C479  1  0.64149451  0.92924066  0.03392570  1
  H  H480  1  0.67515474  0.83172187  0.36833260  1
  O  O481  1  0.51424421  0.90605622  0.45509845  1
  C  C482  1  0.66315441  0.80773610  0.29784380  1
  C  C483  1  0.73177822  0.79202093  0.27768082  1
  C  C484  1  0.73295902  0.96492149  0.32173699  1
  O  O485  1  0.53996705  0.79881240  0.38264879  1
  C  C486  1  0.50555167  0.81851322  0.45958800  1
  O  O487  1  0.62005238  0.95285800  0.11346500  1
  C  C488  1  0.70422811  0.97423195  0.45142496  1
  C  C489  1  0.62260931  0.79900861  0.29720425  1
  C  C490  1  0.69147576  0.78073132  0.23585891  1
  O  O491  1  0.73837929  0.82477982  0.35456697  1
  H  H492  1  0.64728733  0.90399326  0.12549459  1
  C  C493  1  0.53801273  0.76367033  0.31040581  1
  H  H494  1  0.60078706  0.81667184  0.37355296  1
  C  C495  1  0.64518135  0.71236682  0.67485587  1
  O  O496  1  0.59418504  0.66794129  0.76100042  1
  C  C497  1  0.61851174  0.73983833  0.74876899  1
  C  C498  1  0.63070978  0.67217032  0.68206866  1
  C  C499  1  0.68372539  0.72178177  0.60943360  1
  O  O500  1  0.51991129  0.68678669  0.69391862  1
  Cu  Cu501  1  0.55261255  0.64229096  0.65420821  1
  H  H502  1  0.58761472  0.73201945  0.77577495  1
  H  H503  1  0.60107455  0.53743365  0.80310532  1
  C  C504  1  0.66002373  0.53890271  0.90304000  1
  C  C505  1  0.53752780  0.51053202  0.66232628  1
  O  O506  1  0.73797000  0.52154808  0.86025456  1
  H  H507  1  0.66630303  0.51369760  0.82084978  1
  C  C508  1  0.51621738  0.57812027  0.57018328  1
  C  C509  1  0.54435232  0.54615013  0.57628499  1
  O  O510  1  0.64686253  0.64406760  0.63113988  1
  H  H511  1  0.69838031  0.69773458  0.54128114  1
  O  O512  1  0.52699248  0.61038102  0.50644627  1
  H  H513  1  0.73445927  0.53351075  0.52183473  1
  C  C514  1  0.61992440  0.54793095  0.91663343  1
  C  C515  1  0.73205640  0.54980007  0.96224962  1
  H  H516  1  0.50818754  0.50577105  0.72642251  1
  C  C517  1  0.69056262  0.56003563  0.99737423  1
  H  H518  1  0.52022118  0.75103901  0.75567477  1
  H  H519  1  0.56744832  0.88545891  0.65628050  1
  C  C520  1  0.74629633  0.86113853  0.86410648  1
  C  C521  1  0.69773630  0.75905495  0.63958684  1
  C  C522  1  0.50808632  0.93168771  0.54935362  1
  H  H523  1  0.72692830  0.76544113  0.59857070  1
  H  H524  1  0.74016799  0.92354751  0.90456815  1
  H  H525  1  0.74228530  0.80197512  0.77531309  1
  C  C526  1  0.69495557  0.94558377  0.59140813  1
  H  H527  1  0.61264693  0.90696791  0.58407019  1
  O  O528  1  0.62194283  0.85545043  0.72773522  1
  H  H529  1  0.60147384  0.90869660  0.81864228  1
  H  H530  1  0.61114747  0.79909480  0.81437422  1
  C  C531  1  0.59901964  0.88855935  0.70010449  1
  C  C532  1  0.66232472  0.92739457  0.86775321  1
  C  C533  1  0.68574064  0.82725379  0.76238017  1
  C  C534  1  0.66952438  0.95663992  0.73064477  1
  C  C535  1  0.59690719  0.98333673  0.99994440  1
  H  H536  1  0.70562939  0.91745832  0.57529408  1
  C  C537  1  0.68533845  0.89012225  0.83946892  1
  C  C538  1  0.72565310  0.89575017  0.87744282  1
  C  C539  1  0.67230017  0.78771618  0.71702454  1
  C  C540  1  0.66171770  0.85970848  0.77762941  1
  C  C541  1  0.72643739  0.82811711  0.80233503  1
  C  C542  1  0.63237619  0.77612391  0.76488531  1
  H  H543  1  0.65967225  0.98671083  0.74613673  1
  O  O544  1  0.58180675  0.97376276  0.86246244  1
  H  H545  1  0.51392023  0.84373660  0.55239166  1
  C  C546  1  0.85053439  0.14598972  0.29234502  1
  C  C547  1  0.80929208  0.14320577  0.29402364  1
  C  C548  1  0.95030050  0.18430168  0.22477182  1
  C  C549  1  0.91736406  0.11978753  0.34350697  1
  C  C550  1  0.93440561  0.15512369  0.28018727  1
  C  C551  1  0.87608279  0.11693285  0.35407578  1
  C  C552  1  0.78613388  0.17653551  0.23346010  1
  H  H553  1  0.86192884  0.17369284  0.25672876  1
  O  O554  1  0.83507003  0.22638931  0.28461688  1
  C  C555  1  0.79887373  0.21668101  0.22990599  1
  C  C556  1  0.79129440  0.10517602  0.34060939  1
  O  O557  1  0.96199229  0.21729448  0.17523778  1
  H  H558  1  0.93787610  0.09812164  0.38435840  1
  O  O559  1  0.80505577  0.07408473  0.37248598  1
  H  H560  1  0.86331562  0.09085675  0.41806805  1
  C  C561  1  0.76914360  0.24031593  0.16016837  1
  H  H562  1  0.75758750  0.10106532  0.36830308  1
  C  C563  1  0.99195389  0.44264842  0.28028810  1
  C  C564  1  0.90462690  0.40582887  0.45007403  1
  H  H565  1  0.85050295  0.28099037  0.18075168  1
  C  C566  1  0.77931009  0.28225267  0.11193711  1
  H  H567  1  0.77575831  0.41831310  0.37807746  1
  H  H568  1  0.91559617  0.48638020  0.28627769  1
  C  C569  1  0.81612139  0.46417374  0.33314794  1
  H  H570  1  0.81534895  0.39601735  0.11564393  1
  C  C571  1  0.84035642  0.39913372  0.20324226  1
  C  C572  1  0.76151174  0.34904474  0.12855609  1
  C  C573  1  0.77827048  0.45018333  0.37130000  1
  C  C574  1  0.84242348  0.27039881  0.31904011  1
  O  O575  1  0.95683357  0.34128089  0.43599244  1
  H  H576  1  0.81712734  0.28650900  0.37850455  1
  C  C577  1  0.86643217  0.36866773  0.22488734  1
  O  O578  1  0.92024985  0.31432236  0.22551734  1
  O  O579  1  0.98691186  0.29347278  0.07600768  1
  Cu  Cu580  1  0.94402911  0.26799211  0.18914450  1
  O  O581  1  0.95942755  0.44584270  0.22343691  1
  H  H582  1  0.86354429  0.34357645  0.14218257  1
  H  H583  1  0.86745113  0.27215467  0.41148545  1
  C  C584  1  0.92760958  0.34212011  0.33259125  1
  C  C585  1  0.75848686  0.31208123  0.20481387  1
  C  C586  1  0.87816630  0.43542097  0.43883694  1
  C  C587  1  0.84536863  0.43217965  0.31855251  1
  C  C588  1  0.89955049  0.37381193  0.33871537  1
  H  H589  1  0.87215993  0.47875109  0.16609610  1
  C  C590  1  0.88509634  0.20734662  0.68708508  1
  Cu  Cu591  1  0.80196740  0.11908657  0.73831241  1
  O  O592  1  0.84608020  0.15325368  0.71701690  1
  C  C593  1  0.84679973  0.19020872  0.70999545  1
  O  O594  1  0.81520407  0.20884577  0.71090583  1
  H  H595  1  0.91490622  0.15351310  0.67372025  1
  C  C596  1  0.91966849  0.18518337  0.67790124  1
  C  C597  1  0.95657945  0.20149117  0.66229276  1
  H  H598  1  0.98461935  0.18385873  0.63403125  1
  Cu  Cu599  1  0.76902658  0.18337745  0.65003945  1
  C  C600  1  0.96036553  0.24153715  0.66319666  1
  O  O601  1  0.98498206  0.00180018  0.93314837  1
  C  C602  1  0.88933709  0.24857112  0.69579697  1
  O  O603  1  0.75224115  0.09620684  0.69506801  1
  H  H604  1  0.92836210  0.29603756  0.67970832  1
  O  O605  1  0.81479012  0.48466353  0.93622863  1
  H  H606  1  0.86272385  0.26691106  0.72016100  1
  C  C607  1  0.92464275  0.26466459  0.67642494  1
  H  H608  1  0.82069039  0.26373107  0.89840849  1
  H  H609  1  0.85380390  0.42643638  0.94217680  1
  C  C610  1  0.80457518  0.28848916  0.96396393  1
  O  O611  1  0.75527497  0.41670431  0.93423263  1
  Cu  Cu612  1  0.75935759  0.47058423  0.89303189  1
  C  C613  1  0.80468233  0.32460421  0.88758093  1
  C  C614  1  0.94855615  0.43911728  0.79242049  1
  H  H615  1  0.93173008  0.40583225  0.52912402  1
  O  O616  1  0.80274237  0.39863812  0.74459765  1
  H  H617  1  0.96902595  0.31262031  0.75132252  1
  C  C618  1  0.99264279  0.38417885  0.74231090  1
  C  C619  1  0.99781515  0.29958859  0.69544182  1
  H  H620  1  0.96403992  0.36763119  0.71668165  1
  C  C621  1  0.90826674  0.49761790  0.73148467  1
  C  C622  1  0.94158713  0.47592077  0.70545471  1
  H  H623  1  0.82056341  0.32770527  0.75168017  1
  H  H624  1  0.96718654  0.48881033  0.63278495  1
  C  C625  1  0.91850149  0.42222623  0.88952245  1
  H  H626  1  0.87938527  0.46189844  0.52410586  1
  C  C627  1  0.87752234  0.47717981  0.82428076  1
  C  C628  1  0.78027663  0.39148990  0.86237601  1
  C  C629  1  0.88099444  0.43982409  0.88541091  1
  C  C630  1  0.78182257  0.35424601  0.96299954  1
  H  H631  1  0.92169124  0.39714149  0.97904540  1
  C  C632  1  0.99075697  0.42249692  0.79340731  1
  H  H633  1  0.97438835  0.49206929  0.97519838  1
  H  H634  1  0.90464584  0.68879991  0.20401154  1
  O  O635  1  0.85999447  0.52259311  0.32221481  1
  O  O636  1  0.88878466  0.62380590  0.06330150  1
  H  H637  1  0.97122838  0.52176723  0.29753581  1
  C  C638  1  0.88057447  0.70308988  0.11533150  1
  O  O639  1  0.78867028  0.71304393  0.43489254  1
  C  C640  1  0.99717920  0.51359374  0.37393116  1
  C  C641  1  0.76296371  0.59256191  0.41114727  1
  C  C642  1  0.87592112  0.74314947  0.11149688  1
  C  C643  1  0.79357184  0.52533427  0.41605656  1
  O  O644  1  0.75945177  0.57182879  0.01262741  1
  C  C645  1  0.77020220  0.63217103  0.41001994  1
  C  C646  1  0.81725019  0.68831133  0.47854249  1
  C  C647  1  0.79689891  0.56825100  0.42493115  1
  C  C648  1  0.80832166  0.64563708  0.45357122  1
  H  H649  1  0.90636386  0.52083429  0.10682741  1
  C  C650  1  0.82637727  0.50446593  0.35085232  1
  C  C651  1  0.89299499  0.50249612  0.21506050  1
  C  C652  1  0.75638871  0.51224946  0.46547710  1
  C  C653  1  0.84065732  0.62152151  0.49678963  1
  C  C654  1  0.83494770  0.58200368  0.48509151  1
  C  C655  1  0.76549541  0.95137113  0.21077560  1
  H  H656  1  0.93020300  0.87065454  0.05313108  1
  H  H657  1  0.96282688  0.92409881  0.04067877  1
  Cu  Cu658  1  0.76391941  0.87099685  0.30821806  1
  O  O659  1  0.78039132  0.96898566  0.08417799  1
  O  O660  1  0.75855920  0.77073675  0.22060545  1
  C  C661  1  0.98640997  0.90874755  0.11025899  1
  O  O662  1  0.78576377  0.91570190  0.25772128  1
  H  H663  1  0.86242398  0.93639452  0.07001896  1
  H  H664  1  0.89658116  0.76266466  0.19032940  1
  C  C665  1  0.90562179  0.82083936  0.46033114  1
  C  C666  1  0.94114950  0.83484386  0.39577216  1
  C  C667  1  0.87330003  0.88288547  0.36125924  1
  C  C668  1  0.90922538  0.89858516  0.31951550  1
  H  H669  1  0.84575555  0.89903213  0.33231689  1
  Cu  Cu670  1  0.80451438  0.76167468  0.36478827  1
  H  H671  1  0.91530590  0.98872617  0.02119769  1
  O  O672  1  0.80447426  0.85343873  0.48466650  1
  C  C673  1  0.83317389  0.83078940  0.48742826  1
  C  C674  1  0.87169909  0.84432722  0.43476905  1
  H  H675  1  0.91107530  0.92723778  0.25332289  1
  C  C676  1  0.94371011  0.87385456  0.33640341  1
  C  C677  1  0.98426707  0.88430642  0.27384926  1
  H  H678  1  0.96626300  0.83110372  0.07047860  1
  C  C679  1  0.84728128  0.76181125  0.00232238  1
  H  H680  1  0.96755765  0.81615688  0.39380994  1
  H  H681  1  0.90347617  0.52723002  0.67834761  1
  H  H682  1  0.80844406  0.67825669  0.81127253  1
  O  O683  1  0.83779191  0.53536215  0.80573601  1
  C  C684  1  0.82180860  0.73605668  0.90916515  1
  C  C685  1  0.82632858  0.69578925  0.89655684  1
  O  O686  1  0.83994033  0.61412670  0.87163578  1
  H  H687  1  0.79627086  0.74878308  0.83617608  1
  H  H688  1  0.98743075  0.63117306  0.97377342  1
  Cu  Cu689  1  0.81111289  0.57216567  0.94462171  1
  C  C690  1  0.84103881  0.50041530  0.84796960  1
  C  C691  1  0.99989945  0.50750651  0.90864253  1
  H  H692  1  0.99074745  0.52088519  0.77248801  1
  C  C693  1  0.86141685  0.63637889  0.97643936  1
  C  C694  1  0.85712296  0.67996256  0.99900762  1
  H  H695  1  0.85977018  0.56295426  0.50350678  1
  H  H696  1  0.86841303  0.63270057  0.52617534  1
  O  O697  1  0.84845227  0.69890511  0.53028446  1
  C  C698  1  0.94074199  0.92237530  0.69166150  1
  O  O699  1  0.83042776  0.79508542  0.52703376  1
  C  C700  1  0.78879367  0.85579444  0.91559300  1
  O  O701  1  0.90819690  0.81475197  0.98879312  1
  C  C702  1  0.82004429  0.88328856  0.90837338  1
  C  C703  1  0.85805309  0.86677170  0.92881619  1
  C  C704  1  0.80068773  0.81753877  0.96054038  1
  H  H705  1  0.81553083  0.91359226  0.87644900  1
  H  H706  1  0.96161553  0.91801390  0.57889902  1
  C  C707  1  0.83862869  0.80407092  0.97702910  1
  H  H708  1  0.77832007  0.79573825  0.95422331  1
  C  C709  1  0.97730173  0.98076578  0.79825735  1
  C  C710  1  0.94269870  0.95460910  0.80718398  1
  H  H711  1  0.95145002  0.84969280  0.84656869  1
  C  C712  1  0.88699917  0.89797647  0.87791082  1
  C  C713  1  0.91307294  0.89455908  0.72294660  1
  H  H714  1  0.91380125  0.87020992  0.62969993  1
  C  C715  1  0.87177601  0.82871995  0.97268857  1
  C  C716  1  0.94065119  0.84178550  0.98420269  1
  H  H717  1  0.90078259  0.79003860  0.50500681  1
  C  C718  1  0.91419897  0.96263820  0.93786635  1
  C  C719  1  0.88638565  0.93409817  0.96904236  1
