# generated using pymatgen
data_CuH13C21O5
_symmetry_space_group_name_H-M   'P 1'
_cell_length_a   35.89737815
_cell_length_b   23.00410003
_cell_length_c   12.13891111
_cell_angle_alpha   90.00000000
_cell_angle_beta   90.00000000
_cell_angle_gamma   90.00000000
_symmetry_Int_Tables_number   1
_chemical_formula_structural   CuH13C21O5
_chemical_formula_sum   'Cu18 H234 C378 O90'
_cell_volume   10024.15350028
_cell_formula_units_Z   18
loop_
 _symmetry_equiv_pos_site_id
 _symmetry_equiv_pos_as_xyz
  1  'x, y, z'
loop_
 _atom_site_type_symbol
 _atom_site_label
 _atom_site_symmetry_multiplicity
 _atom_site_fract_x
 _atom_site_fract_y
 _atom_site_fract_z
 _atom_site_occupancy
  H  H0  1  0.01824412  0.15259890  0.24097626  1
  O  O1  1  0.14132362  0.15933857  0.12948637  1
  C  C2  1  0.04152040  0.46811838  0.33300378  1
  C  C3  1  0.07852243  0.15202280  0.06118675  1
  O  O4  1  0.23529056  0.06941623  0.31715428  1
  O  O5  1  0.18211117  0.01877599  0.32122493  1
  O  O6  1  0.11141649  0.07626734  0.13468508  1
  C  C7  1  0.00738175  0.11430271  0.28577078  1
  H  H8  1  0.03266420  0.08924779  0.31423713  1
  C  C9  1  0.01270955  0.26679691  0.41267891  1
  O  O10  1  0.06324454  0.32460152  0.48400722  1
  C  C11  1  0.02480842  0.27290762  0.30278116  1
  C  C12  1  0.00095494  0.45905713  0.30275836  1
  H  H13  1  0.05010156  0.29860852  0.28614271  1
  Cu  Cu14  1  0.14684614  0.04820546  0.22661373  1
  O  O15  1  0.06179248  0.42498128  0.36607106  1
  H  H16  1  0.05016988  0.06883891  0.07731432  1
  Cu  Cu17  1  0.18700361  0.12255837  0.10378195  1
  C  C18  1  0.11224265  0.12891621  0.11280242  1
  O  O19  1  0.20391873  0.19720506  0.04362198  1
  C  C20  1  0.04806954  0.11429979  0.05069619  1
  C  C21  1  0.04733170  0.48163073  0.04024732  1
  C  C22  1  0.21635154  0.02555088  0.29119323  1
  H  H23  1  0.03149405  0.48133883  0.12049205  1
  C  C24  1  0.18276787  0.28089199  0.48696922  1
  H  H25  1  0.00741373  0.36902885  0.35090248  1
  C  C26  1  0.24028414  0.27785073  0.01443474  1
  H  H27  1  0.01502057  0.24470686  0.13928775  1
  C  C28  1  0.03306724  0.29647254  0.49868598  1
  H  H29  1  0.10258305  0.24114521  0.04029747  1
  C  C30  1  0.01483098  0.13634174  0.00420998  1
  H  H31  1  0.17536869  0.24894738  0.42648937  1
  C  C32  1  0.07727883  0.21265502  0.03376289  1
  C  C33  1  0.23238245  0.22397127  0.07437560  1
  C  C34  1  0.00473574  0.24469611  0.22186389  1
  Cu  Cu35  1  0.24309181  0.14278146  0.23330954  1
  C  C36  1  0.21986783  0.30381532  0.49584685  1
  O  O37  1  0.14383693  0.44035248  0.71393172  1
  C  C38  1  0.08184646  0.48989617  0.83216317  1
  C  C39  1  0.22960613  0.35250546  0.87248427  1
  H  H40  1  0.04763978  0.41858331  0.77977914  1
  C  C41  1  0.22743888  0.47597002  0.87259481  1
  H  H42  1  0.21310404  0.14567275  0.64751994  1
  C  C43  1  0.05450201  0.44876650  0.84915721  1
  C  C44  1  0.21864022  0.18486769  0.59928379  1
  C  C45  1  0.03578675  0.15486174  0.75732230  1
  O  O46  1  0.02065840  0.29838868  0.59690647  1
  C  C47  1  0.16636746  0.36073789  0.60783460  1
  C  C48  1  0.13631203  0.39893993  0.66101476  1
  H  H49  1  0.03962941  0.12521836  0.82591588  1
  C  C50  1  0.01433282  0.46627583  0.61327606  1
  H  H51  1  0.19529783  0.27694931  0.89393733  1
  O  O52  1  0.04798498  0.05756124  0.53258485  1
  H  H53  1  0.20791705  0.42749111  0.66565240  1
  O  O54  1  0.00213415  0.36363443  0.88525005  1
  C  C55  1  0.01033801  0.39547111  0.97094065  1
  H  H56  1  0.20369568  0.45124042  0.91309665  1
  H  H57  1  0.05103666  0.13677751  0.68231042  1
  C  C58  1  0.20267369  0.38615652  0.62359310  1
  C  C59  1  0.04566053  0.23532699  0.98562602  1
  C  C60  1  0.15456311  0.31274998  0.54200558  1
  H  H61  1  0.05096927  0.19267166  0.78793560  1
  C  C62  1  0.03758123  0.44422357  0.95291287  1
  C  C63  1  0.22886672  0.35250650  0.56411057  1
  H  H64  1  0.04428690  0.28330479  0.96317619  1
  O  O65  1  0.10148936  0.38390510  0.64380834  1
  C  C66  1  0.21968254  0.30059725  0.92552043  1
  C  C67  1  0.01540473  0.19482644  0.97051106  1
  H  H68  1  0.09462738  0.49771743  0.74775267  1
  H  H69  1  0.19437280  0.19143953  0.54571599  1
  O  O70  1  0.04924154  0.45865755  0.59866682  1
  H  H71  1  0.21308275  0.36915112  0.80298286  1
  H  H72  1  0.22192363  0.22314901  0.65686675  1
  C  C73  1  0.05669109  0.02675610  0.59201521  1
  Cu  Cu74  1  0.07600044  0.40081997  0.50934094  1
  H  H75  1  0.12428878  0.30086079  0.53637497  1
  H  H76  1  0.18573211  0.92659864  0.18351389  1
  C  C77  1  0.21250249  0.94267631  0.15320552  1
  H  H78  1  0.08676487  0.54653803  0.09362719  1
  H  H79  1  0.15181410  0.68721795  0.36631573  1
  Cu  Cu80  1  0.15910098  0.65605088  0.05164692  1
  H  H81  1  0.04244947  0.72053614  0.32642267  1
  H  H82  1  0.05542005  0.60612582  0.02224303  1
  O  O83  1  0.18156466  0.78039140  0.30554943  1
  O  O84  1  0.11043868  0.64713561  0.08694930  1
  H  H85  1  0.20986214  0.87987686  0.02245364  1
  C  C86  1  0.05124961  0.65977172  0.17676110  1
  C  C87  1  0.20585590  0.61695360  0.22806838  1
  C  C88  1  0.17419552  0.79945242  0.40411378  1
  O  O89  1  0.21040994  0.65867566  0.29114972  1
  O  O90  1  0.17821480  0.60688963  0.16880054  1
  Cu  Cu91  1  0.22318015  0.74021388  0.25969260  1
  C  C92  1  0.03707411  0.62297579  0.09260981  1
  O  O93  1  0.17914064  0.85015844  0.42514223  1
  O  O94  1  0.10539098  0.70632511  0.23009142  1
  O  O95  1  0.05236739  0.51758851  0.32931513  1
  C  C96  1  0.22712981  0.91183700  0.06543823  1
  C  C97  1  0.14927339  0.70209926  0.45191839  1
  C  C98  1  0.22662403  0.70772738  0.03886326  1
  C  C99  1  0.03088866  0.68606079  0.26365160  1
  C  C100  1  0.07564150  0.52078549  0.02491993  1
  C  C101  1  0.09128837  0.67295760  0.16725831  1
  C  C102  1  0.23673883  0.57349267  0.22480451  1
  C  C103  1  0.23491538  0.53376494  0.13888481  1
  C  C104  1  0.01096991  0.61375957  0.49589482  1
  O  O105  1  0.21749248  0.74977626  0.09940275  1
  C  C106  1  0.23048370  0.98928413  0.20405413  1
  H  H107  1  0.21043008  0.53792465  0.07961922  1
  H  H108  1  0.03115963  0.64323276  0.45753183  1
  O  O109  1  0.20279416  0.67288466  0.00464865  1
  C  C110  1  0.15974647  0.75740226  0.49251089  1
  H  H111  1  0.01502777  0.61804544  0.76250567  1
  H  H112  1  0.04820770  0.56211066  0.76037995  1
  H  H113  1  0.24826113  0.67807607  0.55084329  1
  H  H114  1  0.18070361  0.86055166  0.72624718  1
  C  C115  1  0.15522049  0.73841690  0.68257317  1
  C  C116  1  0.22370921  0.53116704  0.82416627  1
  O  O117  1  0.23170499  0.88303938  0.82649493  1
  C  C118  1  0.14296837  0.63515429  0.74086015  1
  C  C119  1  0.04328494  0.60588154  0.79495974  1
  H  H120  1  0.03642303  0.60060065  0.88708083  1
  C  C121  1  0.09206992  0.52949056  0.91818850  1
  C  C122  1  0.21188154  0.85110587  0.72929486  1
  C  C123  1  0.11017271  0.61254543  0.79308234  1
  H  H124  1  0.17225352  0.82342283  0.61709136  1
  H  H125  1  0.22537393  0.85839279  0.65006768  1
  H  H126  1  0.21796603  0.80724069  0.76436724  1
  H  H127  1  0.06378836  0.76901028  0.62851912  1
  H  H128  1  0.13682581  0.61607225  0.51680680  1
  C  C129  1  0.14263605  0.68108937  0.65211741  1
  C  C130  1  0.13964106  0.66434612  0.53793060  1
  H  H131  1  0.20129014  0.64416953  0.72532172  1
  O  O132  1  0.07765648  0.63304639  0.76002848  1
  C  C133  1  0.17942869  0.61828954  0.75962989  1
  O  O134  1  0.01232881  0.72517954  0.56709550  1
  C  C135  1  0.16376775  0.77898266  0.59881709  1
  C  C136  1  0.15797238  0.54676087  0.88213326  1
  H  H137  1  0.15806381  0.75220454  0.76720663  1
  C  C138  1  0.12202125  0.56772389  0.86597688  1
  H  H139  1  0.02176927  0.80724239  0.65968178  1
  C  C140  1  0.18875901  0.56811919  0.82182832  1
  H  H141  1  0.16178426  0.50818275  0.93868341  1
  C  C142  1  0.03487148  0.77811767  0.60089287  1
  C  C143  1  0.02154569  0.55906055  0.52375047  1
  H  H144  1  0.03733209  0.80181494  0.51821489  1
  H  H145  1  0.05205124  0.54539466  0.51743145  1
  O  O146  1  0.33663327  0.14876256  0.24002721  1
  H  H147  1  0.25221341  0.35513635  0.37058751  1
  C  C148  1  0.26788905  0.31309176  0.37991027  1
  C  C149  1  0.32253177  0.44345654  0.19036680  1
  H  H150  1  0.28079590  0.41208719  0.30155943  1
  C  C151  1  0.33811179  0.12659248  0.33792128  1
  C  C152  1  0.41491660  0.29792349  0.06694927  1
  C  C153  1  0.30266144  0.29983850  0.33341220  1
  C  C154  1  0.30777152  0.40231998  0.26082603  1
  H  H155  1  0.28461179  0.30075705  0.13611931  1
  C  C156  1  0.30410533  0.20577884  0.42681324  1
  C  C157  1  0.32017162  0.24607718  0.35812157  1
  C  C158  1  0.36397929  0.12251202  0.15337820  1
  H  H159  1  0.34800263  0.24150874  0.32095670  1
  C  C160  1  0.33999065  0.20605946  0.04542264  1
  H  H161  1  0.28247012  0.03449843  0.21904550  1
  C  C162  1  0.43287130  0.33265318  0.46945398  1
  O  O163  1  0.25568545  0.20464856  0.14220706  1
  C  C164  1  0.35603457  0.43427693  0.12677551  1
  C  C165  1  0.25400689  0.27226006  0.45577099  1
  H  H166  1  0.37198137  0.29363900  0.21685752  1
  O  O167  1  0.37401169  0.47279050  0.06331532  1
  C  C168  1  0.36532188  0.15987745  0.05174655  1
  C  C169  1  0.35715532  0.33535225  0.21245863  1
  H  H170  1  0.35294816  0.08366489  0.33704634  1
  C  C171  1  0.32391388  0.34646630  0.27629330  1
  H  H172  1  0.39384238  0.19791598  0.45192825  1
  C  C173  1  0.46078026  0.32764339  0.39342888  1
  C  C174  1  0.41217592  0.23312710  0.42975077  1
  C  C175  1  0.47478693  0.37486222  0.06863903  1
  H  H176  1  0.31719267  0.21517322  0.10948669  1
  C  C177  1  0.32545232  0.14987795  0.43821404  1
  O  O178  1  0.37925591  0.07869819  0.16907007  1
  C  C179  1  0.37308868  0.37941479  0.14863206  1
  C  C180  1  0.40860350  0.35517675  0.10443030  1
  C  C181  1  0.43948278  0.22810086  0.35218540  1
  H  H182  1  0.49922376  0.40522385  0.06474797  1
  C  C183  1  0.43998849  0.39481992  0.09424761  1
  H  H184  1  0.47987302  0.36395989  0.37591487  1
  H  H185  1  0.43701120  0.44184092  0.10246725  1
  H  H186  1  0.43942315  0.18674766  0.30348641  1
  H  H187  1  0.29688053  0.39491208  0.05171116  1
  H  H188  1  0.26334026  0.46775597  0.04464952  1
  C  C189  1  0.46544341  0.27386287  0.33775529  1
  C  C190  1  0.26990652  0.31230225  0.05443806  1
  H  H191  1  0.34935191  0.48707079  0.45170574  1
  C  C192  1  0.48143029  0.31614577  0.04171817  1
  H  H193  1  0.39096470  0.26911872  0.05616576  1
  C  C194  1  0.29567425  0.49634062  0.18716815  1
  C  C195  1  0.45013451  0.28095280  0.03245328  1
  C  C196  1  0.26391463  0.49509998  0.11422999  1
  H  H197  1  0.34230749  0.34893271  0.49031239  1
  C  C198  1  0.27669731  0.36503457  0.00991467  1
  C  C199  1  0.26904282  0.21625004  0.48010893  1
  C  C200  1  0.49724344  0.26470921  0.26933888  1
  C  C201  1  0.40987953  0.28443985  0.49252425  1
  C  C202  1  0.26781695  0.00093079  0.17438644  1
  H  H203  1  0.45415810  0.23557002  0.00461957  1
  C  C204  1  0.32223872  0.15286311  0.63415298  1
  O  O205  1  0.26678709  0.08082693  0.96765279  1
  H  H206  1  0.32052987  0.27742810  0.94568093  1
  C  C207  1  0.32591646  0.11723438  0.53892403  1
  C  C208  1  0.27674655  0.07363046  0.87465836  1
  C  C209  1  0.35961517  0.25818381  0.75889565  1
  C  C210  1  0.39152088  0.26418004  0.69074506  1
  O  O211  1  0.42849090  0.24306510  0.73320650  1
  O  O212  1  0.25355109  0.17502292  0.54425964  1
  C  C213  1  0.33676309  0.39366830  0.85413671  1
  H  H214  1  0.36416275  0.37574748  0.82667832  1
  C  C215  1  0.33860361  0.23857370  0.94867573  1
  H  H216  1  0.31722013  0.19877865  0.61374319  1
  C  C217  1  0.31554171  0.10673816  0.83497462  1
  H  H218  1  0.25744416  0.37170470  0.55455625  1
  C  C219  1  0.39001867  0.17595135  0.86914834  1
  C  C220  1  0.32404095  0.30403138  0.63866789  1
  C  C221  1  0.31738787  0.12757935  0.74076563  1
  C  C222  1  0.36401601  0.22470353  0.86207450  1
  C  C223  1  0.32021674  0.27735830  0.73952933  1
  C  C224  1  0.26151889  0.44841960  0.86160143  1
  H  H225  1  0.45241663  0.30588386  0.65706986  1
  C  C226  1  0.39261517  0.14615395  0.96807649  1
  C  C227  1  0.29601989  0.46957628  0.81662447  1
  C  C228  1  0.45724067  0.25744307  0.65899313  1
  H  H229  1  0.29245430  0.27090230  0.78678406  1
  H  H230  1  0.33686001  0.39613545  0.94365803  1
  H  H231  1  0.40635574  0.16476576  0.79391333  1
  H  H232  1  0.31314789  0.36308035  0.82572959  1
  H  H233  1  0.33672657  0.07336730  0.54365259  1
  O  O234  1  0.32910669  0.44827749  0.80337111  1
  C  C235  1  0.34724698  0.31790043  0.55832008  1
  C  C236  1  0.25844777  0.38802791  0.91562474  1
  H  H237  1  0.31183403  0.46526230  0.60927280  1
  H  H238  1  0.33810813  0.11689583  0.89447567  1
  H  H239  1  0.42595779  0.37690436  0.51149106  1
  H  H240  1  0.48682211  0.25183322  0.68478455  1
  C  C241  1  0.38298000  0.28722392  0.58830209  1
  H  H242  1  0.45348389  0.23785772  0.57429207  1
  O  O243  1  0.26382854  0.03406180  0.81143307  1
  H  H244  1  0.41177038  0.11279047  0.98336632  1
  C  C245  1  0.30101016  0.54146544  0.26583990  1
  C  C246  1  0.26967586  0.57630713  0.28602542  1
  C  C247  1  0.47174959  0.89319501  0.22302857  1
  C  C248  1  0.42163930  0.82914164  0.43467621  1
  C  C249  1  0.26907446  0.75342348  0.46355721  1
  H  H250  1  0.37992850  0.70808846  0.15538496  1
  C  C251  1  0.43881496  0.83775198  0.04285938  1
  C  C252  1  0.29397330  0.73679560  0.05430813  1
  C  C253  1  0.49219632  0.73263113  0.22400401  1
  H  H254  1  0.29540426  0.83259986  0.40812982  1
  H  H255  1  0.35041670  0.75969047  0.06409710  1
  H  H256  1  0.40212502  0.74907048  0.30240836  1
  Cu  Cu257  1  0.44760139  0.61852651  0.32755904  1
  O  O258  1  0.39863879  0.63302629  0.37927564  1
  O  O259  1  0.46648223  0.61677284  0.46953064  1
  C  C260  1  0.26577239  0.92309560  0.03559479  1
  H  H261  1  0.32949990  0.88500281  0.06723955  1
  C  C262  1  0.44867919  0.79060934  0.37507370  1
  H  H263  1  0.35074295  0.92812509  0.37420733  1
  H  H264  1  0.27324519  0.61326466  0.34483905  1
  C  C265  1  0.43240128  0.75244315  0.29843525  1
  C  C266  1  0.39876591  0.84661164  0.03415418  1
  H  H267  1  0.39522387  0.86006834  0.28246520  1
  C  C268  1  0.38264953  0.58585863  0.39413403  1
  C  C269  1  0.45275363  0.72405261  0.21201207  1
  C  C270  1  0.48814533  0.79842490  0.39534924  1
  H  H271  1  0.48865245  0.64490949  0.06148453  1
  H  H272  1  0.35052825  0.55677888  0.11826179  1
  H  H273  1  0.46236174  0.88787333  0.30991860  1
  C  C274  1  0.37183727  0.90167267  0.42319565  1
  C  C275  1  0.45580070  0.86601182  0.13329265  1
  C  C276  1  0.39898662  0.68576116  0.09636491  1
  C  C277  1  0.43754315  0.68750528  0.11816593  1
  C  C278  1  0.39660364  0.86470134  0.37346712  1
  O  O279  1  0.49900304  0.83319649  0.47637125  1
  O  O280  1  0.26409481  0.73394368  0.36425196  1
  H  H281  1  0.32681563  0.54677740  0.31556964  1
  H  H282  1  0.28409810  0.77736362  0.09026901  1
  C  C283  1  0.35431387  0.52639276  0.04187717  1
  C  C284  1  0.45891111  0.65117184  0.04542155  1
  H  H285  1  0.38547842  0.87423701  0.09498838  1
  Cu  Cu286  1  0.42606953  0.52282691  0.24493583  1
  O  O287  1  0.38722523  0.53970115  0.33643926  1
  C  C288  1  0.28555179  0.96683373  0.09474168  1
  C  C289  1  0.49345364  0.54057737  0.24207734  1
  O  O290  1  0.49120819  0.59536059  0.25238105  1
  H  H291  1  0.31331938  0.97396718  0.06020537  1
  C  C292  1  0.28351193  0.81052003  0.47969053  1
  O  O293  1  0.47015161  0.50899746  0.18998306  1
  C  C294  1  0.33120978  0.72505085  0.03687388  1
  C  C295  1  0.49749108  0.93855344  0.18283007  1
  C  C296  1  0.26606424  0.69884431  0.01101475  1
  H  H297  1  0.47306190  0.50632787  0.01080935  1
  C  C298  1  0.36097882  0.57894632  0.49704272  1
  C  C299  1  0.48997780  0.65595955  0.49993146  1
  O  O300  1  0.33655295  0.94158384  0.69552118  1
  H  H301  1  0.40176950  0.52340456  0.72767922  1
  C  C302  1  0.46135165  0.80413874  0.96302909  1
  H  H303  1  0.25658559  0.61886848  0.91809870  1
  O  O304  1  0.39043487  0.59457473  0.84026212  1
  C  C305  1  0.33555031  0.60546387  0.67707374  1
  H  H306  1  0.43467864  0.58294037  0.72015553  1
  C  C307  1  0.31802826  0.54967052  0.68685793  1
  C  C308  1  0.38519311  0.66044382  0.99853504  1
  C  C309  1  0.43042254  0.69754112  0.73270483  1
  H  H310  1  0.30440031  0.87454293  0.59174584  1
  C  C311  1  0.31572122  0.64018764  0.93378661  1
  C  C312  1  0.41560548  0.55883097  0.77442254  1
  C  C313  1  0.25527619  0.55326375  0.77238368  1
  C  C314  1  0.29032347  0.82787539  0.78948115  1
  C  C315  1  0.37985756  0.81697106  0.95507369  1
  C  C316  1  0.49611694  0.61823109  0.82986166  1
  H  H317  1  0.38966695  0.87141681  0.69772957  1
  H  H318  1  0.43287664  0.53466129  0.84092504  1
  C  C319  1  0.28100868  0.79969841  0.67717352  1
  H  H320  1  0.33628469  0.77256391  0.77633238  1
  H  H321  1  0.40401716  0.68154597  0.76756815  1
  C  C322  1  0.35515554  0.61956193  0.58071010  1
  C  C323  1  0.44427668  0.67130870  0.63772228  1
  H  H324  1  0.43105942  0.63483704  0.59667491  1
  C  C325  1  0.45109342  0.74295834  0.79102212  1
  C  C326  1  0.47523480  0.58731940  0.90737281  1
  C  C327  1  0.34201312  0.94269040  0.58305128  1
  C  C328  1  0.32400702  0.80703534  0.82791478  1
  C  C329  1  0.39797882  0.78086400  0.87619490  1
  Cu  Cu330  1  0.29985846  0.98390204  0.75917201  1
  C  C331  1  0.33968426  0.82759927  0.92922356  1
  H  H332  1  0.38418064  0.76086711  0.80682003  1
  H  H333  1  0.48732603  0.66360700  0.80375730  1
  C  C334  1  0.29056033  0.83348629  0.58361057  1
  C  C335  1  0.26550506  0.86476181  0.85207273  1
  H  H336  1  0.32218777  0.60252297  0.88278231  1
  C  C337  1  0.28922239  0.52387340  0.75995383  1
  C  C338  1  0.39376456  0.86797937  0.60713219  1
  C  C339  1  0.27774649  0.65033125  0.95100901  1
  C  C340  1  0.34499657  0.67243427  0.98274062  1
  C  C341  1  0.48894287  0.53135195  0.94361120  1
  C  C342  1  0.26538599  0.74343361  0.66656353  1
  C  C343  1  0.43554909  0.77710603  0.88519480  1
  H  H344  1  0.36688082  0.66208646  0.57100858  1
  C  C345  1  0.28231472  0.88175112  0.95057366  1
  H  H346  1  0.33061502  0.63934227  0.73858057  1
  C  C347  1  0.31713897  0.86610778  0.99392405  1
  H  H348  1  0.44031019  0.80788776  0.60525711  1
  C  C349  1  0.40427562  0.62282945  0.92422753  1
  C  C350  1  0.47929982  0.69016727  0.60106116  1
  C  C351  1  0.44263903  0.62332379  0.95603152  1
  C  C352  1  0.25959135  0.72249185  0.56071676  1
  C  C353  1  0.42146050  0.83533939  0.55281692  1
  C  C354  1  0.48486667  0.76321537  0.74273805  1
  O  O355  1  0.32313986  0.97032338  0.52426839  1
  C  C356  1  0.32342500  0.50900239  0.59911344  1
  C  C357  1  0.34422953  0.52289574  0.50895789  1
  C  C358  1  0.37203816  0.90463066  0.53850747  1
  C  C359  1  0.49901040  0.73611887  0.64860695  1
  H  H360  1  0.25711215  0.72131449  0.74136844  1
  H  H361  1  0.49670203  0.80231078  0.76922408  1
  O  O362  1  0.49595531  0.79603434  0.96701826  1
  H  H363  1  0.25755236  0.59618322  0.73084853  1
  H  H364  1  0.32661862  0.51048949  0.99920256  1
  H  H365  1  0.36949634  0.54901710  0.97520967  1
  C  C366  1  0.69711454  0.45035363  0.35188476  1
  H  H367  1  0.72253727  0.35927165  0.25875829  1
  C  C368  1  0.64917300  0.31934602  0.20287053  1
  O  O369  1  0.52336337  0.24126121  0.00649002  1
  C  C370  1  0.70037360  0.41384567  0.44484604  1
  H  H371  1  0.57487157  0.04604115  0.04033265  1
  H  H372  1  0.55006456  0.37553313  0.35446277  1
  H  H373  1  0.66987555  0.46146422  0.31216242  1
  C  C374  1  0.71978935  0.31799548  0.21475080  1
  C  C375  1  0.54759680  0.42178654  0.36587568  1
  C  C376  1  0.72959325  0.47638503  0.31533445  1
  O  O377  1  0.54470713  0.32708694  0.05439242  1
  H  H378  1  0.65781717  0.22431077  0.09595570  1
  C  C379  1  0.68643898  0.29291008  0.17880529  1
  Cu  Cu380  1  0.56869855  0.29880538  0.20019630  1
  Cu  Cu381  1  0.54657108  0.20021477  0.13069392  1
  C  C382  1  0.56972001  0.45040037  0.44687572  1
  C  C383  1  0.71844448  0.21392424  0.08365745  1
  O  O384  1  0.61865893  0.29564277  0.15496239  1
  C  C385  1  0.51961209  0.29492574  0.01692680  1
  C  C386  1  0.68601503  0.24074634  0.12019410  1
  O  O387  1  0.64597267  0.36316545  0.25117720  1
  C  C388  1  0.55697927  0.00648799  0.07482878  1
  C  C389  1  0.52638337  0.45316464  0.29003109  1
  C  C390  1  0.73214783  0.49571796  0.10655119  1
  C  C391  1  0.63297234  0.42596491  0.46659453  1
  O  O392  1  0.52311778  0.30396363  0.27006563  1
  H  H393  1  0.63758983  0.45851764  0.39959940  1
  O  O394  1  0.59133475  0.18156392  0.04735142  1
  H  H395  1  0.51295028  0.43146713  0.21955723  1
  O  O396  1  0.50377983  0.21566840  0.22286039  1
  C  C397  1  0.73582032  0.40232767  0.49105746  1
  C  C398  1  0.56636876  0.04751930  0.26419068  1
  O  O399  1  0.58112906  0.07969143  0.32393326  1
  H  H400  1  0.71921839  0.17187302  0.03903826  1
  H  H401  1  0.74595637  0.45384168  0.09276433  1
  C  C402  1  0.54658672  0.00742558  0.19433613  1
  H  H403  1  0.58889800  0.14963964  0.72760543  1
  H  H404  1  0.55851355  0.33493997  0.79383954  1
  C  C405  1  0.60670316  0.20814838  0.86125796  1
  C  C406  1  0.54350236  0.32429621  0.71220402  1
  C  C407  1  0.60059974  0.19202162  0.75136213  1
  H  H408  1  0.55165572  0.27899250  0.69432257  1
  H  H409  1  0.53303606  0.47095838  0.94134101  1
  C  C410  1  0.65833267  0.35559800  0.58842692  1
  H  H411  1  0.60655404  0.22596247  0.57755479  1
  H  H412  1  0.71162358  0.22280595  0.73659742  1
  Cu  Cu413  1  0.63879386  0.45804027  0.83712376  1
  C  C414  1  0.62239231  0.30479146  0.81920684  1
  C  C415  1  0.61079923  0.23387359  0.67020424  1
  C  C416  1  0.61891013  0.29064922  0.70647795  1
  H  H417  1  0.63063861  0.34852690  0.84218015  1
  C  C418  1  0.62224115  0.34221004  0.62372629  1
  C  C419  1  0.59356191  0.16206585  0.94261368  1
  O  O420  1  0.70987502  0.47307312  0.73204017  1
  O  O421  1  0.58971359  0.47513994  0.81820219  1
  C  C422  1  0.61772547  0.26344645  0.90234521  1
  C  C423  1  0.71294989  0.44639669  0.82339766  1
  H  H424  1  0.73184258  0.36754816  0.97956260  1
  Cu  Cu425  1  0.66632808  0.47241049  0.65282011  1
  O  O426  1  0.58965910  0.11267060  0.91973558  1
  O  O427  1  0.68495366  0.42976717  0.87212639  1
  H  H428  1  0.62184204  0.27432492  0.99444077  1
  O  O429  1  0.55400248  0.36256483  0.61854592  1
  C  C430  1  0.58895214  0.37000124  0.58976009  1
  H  H431  1  0.68144745  0.32912520  0.61985369  1
  H  H432  1  0.51256548  0.32206459  0.72384849  1
  C  C433  1  0.66488265  0.39729326  0.50566222  1
  O  O434  1  0.74948671  0.23964644  0.86857106  1
  C  C435  1  0.74126141  0.22959885  0.74743493  1
  H  H436  1  0.74050497  0.37161213  0.55750437  1
  C  C437  1  0.59734231  0.41397703  0.50983452  1
  C  C438  1  0.70392855  0.58386212  0.04104607  1
  C  C439  1  0.72094760  0.52936195  0.01562314  1
  C  C440  1  0.65019308  0.80428631  0.09553511  1
  H  H441  1  0.54942130  0.87303630  0.42457299  1
  C  C442  1  0.54373852  0.54293309  0.39033753  1
  H  H443  1  0.68395394  0.65010830  0.16235676  1
  O  O444  1  0.67174005  0.76001389  0.07954777  1
  H  H445  1  0.50168218  0.94313071  0.09289831  1
  H  H446  1  0.51614344  0.97139564  0.33951856  1
  H  H447  1  0.56111445  0.69329552  0.27946695  1
  C  C448  1  0.54725581  0.78057832  0.26775201  1
  H  H449  1  0.62202727  0.70559156  0.16005356  1
  C  C450  1  0.59389629  0.84704988  0.18720612  1
  C  C451  1  0.56627204  0.51231238  0.46007771  1
  C  C452  1  0.51733331  0.97545927  0.25091017  1
  O  O453  1  0.51940540  0.66550197  0.45944141  1
  O  O454  1  0.65908599  0.85335466  0.06892564  1
  H  H455  1  0.60474865  0.89141000  0.17034709  1
  C  C456  1  0.60381364  0.74184778  0.18396210  1
  C  C457  1  0.61500772  0.79820952  0.15782991  1
  C  C458  1  0.50669039  0.76881569  0.30725516  1
  H  H459  1  0.70421254  0.58423971  0.31990450  1
  C  C460  1  0.56058806  0.83737472  0.24361451  1
  C  C461  1  0.57077119  0.73357090  0.24343217  1
  C  C462  1  0.70732488  0.56973713  0.23435460  1
  H  H463  1  0.54028787  0.59150196  0.39333268  1
  C  C464  1  0.72217326  0.51329228  0.21364202  1
  H  H465  1  0.54268539  0.87472794  0.26463044  1
  H  H466  1  0.70698908  0.82499160  0.24106552  1
  C  C467  1  0.69774698  0.60878295  0.14597198  1
  H  H468  1  0.51122858  0.71378579  0.16261815  1
  C  C469  1  0.52086164  0.51202917  0.31186851  1
  C  C470  1  0.73833219  0.83327851  0.25724744  1
  H  H471  1  0.52487498  0.87561029  0.04127249  1
  H  H472  1  0.54844678  0.80880161  0.04485152  1
  C  C473  1  0.51948314  0.82635844  0.05467971  1
  C  C474  1  0.54006361  0.83940697  0.48142949  1
  C  C475  1  0.74158960  0.58719035  0.46607432  1
  H  H476  1  0.73653756  0.87033643  0.31839257  1
  H  H477  1  0.51135419  0.81868968  0.14257006  1
  H  H478  1  0.73847797  0.53888311  0.46611889  1
  H  H479  1  0.55003086  0.79634959  0.45743287  1
  H  H480  1  0.54409516  0.61870821  0.72298377  1
  C  C481  1  0.57765093  0.52265324  0.78002650  1
  O  O482  1  0.59833587  0.55503444  0.72141090  1
  H  H483  1  0.52580086  0.74754873  0.60809431  1
  C  C484  1  0.69145508  0.61608866  0.94334158  1
  H  H485  1  0.58495099  0.53341883  0.51871461  1
  C  C486  1  0.52809711  0.59650624  0.78334660  1
  C  C487  1  0.52188347  0.50949813  0.90056530  1
  O  O488  1  0.72799444  0.80066248  0.93760549  1
  O  O489  1  0.68931795  0.59345363  0.84824593  1
  Cu  Cu490  1  0.64611189  0.57142768  0.76966070  1
  O  O491  1  0.66022798  0.60876518  0.63960682  1
  O  O492  1  0.68238324  0.53009697  0.55326434  1
  C  C493  1  0.68361026  0.58245963  0.57520482  1
  C  C494  1  0.54056746  0.54053477  0.81675297  1
  H  H495  1  0.69502879  0.69441413  0.60408669  1
  H  H496  1  0.55129466  0.84776937  0.56312054  1
  H  H497  1  0.72693415  0.51646357  0.92969915  1
  C  C498  1  0.71518369  0.67535566  0.55103285  1
  O  O499  1  0.67803528  0.66570696  0.96555752  1
  Cu  Cu500  1  0.70055336  0.73611945  0.95663550  1
  C  C501  1  0.71289610  0.61709003  0.52235801  1
  C  C502  1  0.74649062  0.70516799  0.51608554  1
  O  O503  1  0.54738992  0.98065059  0.99562175  1
  C  C504  1  0.92955319  0.09129251  0.09916052  1
  C  C505  1  0.95524708  0.12123632  0.16453200  1
  C  C506  1  0.93795989  0.42971085  0.19347930  1
  O  O507  1  0.78435547  0.22354127  0.33830832  1
  H  H508  1  0.79984749  0.33910427  0.01751406  1
  C  C509  1  0.81960012  0.21575087  0.08972314  1
  Cu  Cu510  1  0.81163581  0.10201674  0.24392732  1
  C  C511  1  0.82960775  0.49056974  0.33772210  1
  C  C512  1  0.88821018  0.17250841  0.07443662  1
  O  O513  1  0.85379061  0.13845724  0.29958525  1
  H  H514  1  0.78950845  0.00331585  0.29973567  1
  H  H515  1  0.94691957  0.34002207  0.25594802  1
  C  C516  1  0.95700527  0.38644078  0.25661175  1
  C  C517  1  0.92191309  0.35335658  0.07202297  1
  C  C518  1  0.89249817  0.13817086  0.46944722  1
  C  C519  1  0.78731281  0.23133056  0.03685222  1
  O  O520  1  0.98452792  0.08828483  0.20681626  1
  C  C521  1  0.95837617  0.21376920  0.36088581  1
  O  O522  1  0.78130897  0.06476178  0.14878394  1
  C  C523  1  0.87970817  0.43638206  0.06084687  1
  O  O524  1  0.78106455  0.12919009  0.35225013  1
  H  H525  1  0.77677205  0.32388474  0.18285434  1
  H  H526  1  0.86420227  0.21786220  0.43212799  1
  H  H527  1  0.82146332  0.21353020  0.17995927  1
  C  C528  1  0.94493853  0.17965863  0.17616783  1
  H  H529  1  0.89282895  0.35741977  0.41749129  1
  C  C530  1  0.83457351  0.38270412  0.41887512  1
  H  H531  1  0.93027275  0.19220793  0.37773506  1
  C  C532  1  0.76756366  0.42474520  0.43555346  1
  H  H533  1  0.84427943  0.45493237  0.29116646  1
  C  C534  1  0.79002859  0.02094589  0.08092302  1
  C  C535  1  0.76541721  0.46724691  0.34824554  1
  C  C536  1  0.91420743  0.20730673  0.13106469  1
  C  C537  1  0.87729756  0.11128472  0.36528761  1
  O  O538  1  0.88753616  0.06335178  0.34148471  1
  H  H539  1  0.82899722  0.37948562  0.32963887  1
  C  C540  1  0.75213773  0.29961235  0.16533160  1
  C  C541  1  0.78813316  0.18176148  0.39560214  1
  C  C542  1  0.86894735  0.37306962  0.46950589  1
  H  H543  1  0.90929632  0.25452697  0.13723603  1
  C  C544  1  0.89752924  0.11484699  0.05073811  1
  C  C545  1  0.80429777  0.40530831  0.48347361  1
  H  H546  1  0.94634590  0.33563679  0.11149799  1
  C  C547  1  0.97022894  0.21814821  0.24821532  1
  O  O548  1  0.87085680  0.49150406  0.09706488  1
  C  C549  1  0.85135943  0.19682705  0.02806486  1
  C  C550  1  0.91120854  0.40903314  0.10347109  1
  C  C551  1  0.94079365  0.02865571  0.07894879  1
  H  H552  1  0.96862083  0.26772739  0.05688739  1
  C  C553  1  0.97845790  0.23937439  0.44442590  1
  C  C554  1  0.94837562  0.48881761  0.19947797  1
  H  H555  1  0.81475021  0.47475036  0.08155122  1
  H  H556  1  0.98970620  0.11031026  0.00143361  1
  C  C557  1  0.75193248  0.24611774  0.10341788  1
  C  C558  1  0.99094197  0.40013939  0.30820891  1
  H  H559  1  0.83234387  0.48512518  0.42799853  1
  H  H560  1  0.99202944  0.13398604  0.36148912  1
  O  O561  1  0.99929528  0.38558482  0.06072661  1
  C  C562  1  0.88196718  0.19477609  0.49719165  1
  H  H563  1  0.88029348  0.08677657  0.00261773  1
  C  C564  1  0.91925944  0.19153370  0.66212550  1
  H  H565  1  0.81245449  0.09795304  0.74082057  1
  H  H566  1  0.78640994  0.42827397  0.65229255  1
  C  C567  1  0.81069189  0.13775679  0.68888853  1
  H  H568  1  0.95027949  0.06358603  0.92047967  1
  C  C569  1  0.82191441  0.41212989  0.93445715  1
  C  C570  1  0.84161053  0.39384772  0.65019992  1
  C  C571  1  0.78137862  0.46803973  0.81910460  1
  O  O572  1  0.98584603  0.03971336  0.77131533  1
  C  C573  1  0.86074597  0.39998263  0.98469150  1
  C  C574  1  0.81748391  0.45804984  0.85411943  1
  H  H575  1  0.86968762  0.17235708  0.86411685  1
  C  C576  1  0.80250501  0.13214281  0.57878166  1
  H  H577  1  0.94574470  0.10422679  0.69069886  1
  C  C578  1  0.75590599  0.39310125  0.94448114  1
  C  C579  1  0.92517962  0.27325571  0.92689200  1
  C  C580  1  0.93110791  0.13257925  0.63324156  1
  C  C581  1  0.91249276  0.25197280  0.82388992  1
  O  O582  1  0.93660913  0.36666861  0.57107928  1
  H  H583  1  0.85327037  0.32347303  0.88331979  1
  H  H584  1  0.84198549  0.47914433  0.82194567  1
  C  C585  1  0.80929716  0.24527613  0.67810805  1
  H  H586  1  0.88501981  0.26393490  0.78681194  1
  Cu  Cu587  1  0.95644159  0.36731154  0.81743233  1
  C  C588  1  0.89711974  0.22394603  0.58719242  1
  H  H589  1  0.88960702  0.27031953  0.60279343  1
  C  C590  1  0.78105553  0.22760606  0.91808502  1
  H  H591  1  0.84380903  0.39444816  0.73923535  1
  C  C592  1  0.81164937  0.20308837  0.86584241  1
  C  C593  1  0.98244484  0.21882575  0.90600945  1
  C  C594  1  0.81254082  0.19422657  0.73942414  1
  O  O595  1  0.79213196  0.02915007  0.98222116  1
  C  C596  1  0.90450774  0.32038125  0.98604321  1
  O  O597  1  0.99598666  0.16727667  0.73219224  1
  C  C598  1  0.93676453  0.21546752  0.76636211  1
  O  O599  1  0.91436436  0.37234335  0.73823766  1
  H  H600  1  0.77618694  0.49984735  0.75404569  1
  C  C601  1  0.97389681  0.19878443  0.79560982  1
  C  C602  1  0.80787880  0.40704006  0.60073656  1
  H  H603  1  0.80665041  0.29004215  0.71409509  1
  C  C604  1  0.80323330  0.23807228  0.56434191  1
  C  C605  1  0.79163396  0.37911091  0.97523371  1
  C  C606  1  0.84616404  0.18968246  0.91362070  1
  C  C607  1  0.90955778  0.37361661  0.63448518  1
  Cu  Cu608  1  0.98526743  0.35455892  0.62039307  1
  C  C609  1  0.95517948  0.02310521  0.97091824  1
  C  C610  1  0.87248210  0.37924856  0.58544505  1
  C  C611  1  0.91654591  0.10576477  0.53901686  1
  H  H612  1  0.96755161  0.24164521  0.53086425  1
  C  C613  1  0.96072058  0.25545834  0.97069728  1
  C  C614  1  0.87105844  0.34586585  0.94065291  1
  C  C615  1  0.75161754  0.43643500  0.86503768  1
  H  H616  1  0.93850436  0.48953560  0.59584696  1
  H  H617  1  0.75091342  0.26169812  0.68819346  1
  H  H618  1  0.79551584  0.09001660  0.53485759  1
  O  O619  1  0.99486915  0.43092334  0.66332998  1
  H  H620  1  0.75298742  0.18387869  0.72822800  1
  C  C621  1  0.79778736  0.18408133  0.51539056  1
  H  H622  1  0.92137142  0.06033796  0.51935809  1
  H  H623  1  0.80071452  0.27754958  0.51752934  1
  C  C624  1  0.79496729  0.96287862  0.25576992  1
  C  C625  1  0.81427516  0.86365686  0.13003266  1
  H  H626  1  0.87735313  0.83276338  0.31532473  1
  H  H627  1  0.98016775  0.73213015  0.10702290  1
  C  C628  1  0.95568508  0.68695002  0.49996305  1
  H  H629  1  0.98707883  0.58479958  0.02709285  1
  C  C630  1  0.79888110  0.72260154  0.39451748  1
  C  C631  1  0.91966398  0.60370618  0.27007143  1
  C  C632  1  0.81771045  0.80895270  0.31182795  1
  C  C633  1  0.90458054  0.74992461  0.44477858  1
  C  C634  1  0.93532181  0.64072359  0.18392755  1
  C  C635  1  0.95144885  0.89241219  0.24235480  1
  C  C636  1  0.79413103  0.96400174  0.13822122  1
  C  C637  1  0.83482808  0.71362413  0.43205639  1
  C  C638  1  0.97561560  0.83866957  0.23324511  1
  C  C639  1  0.99312370  0.67476783  0.26122467  1
  C  C640  1  0.88160750  0.60578069  0.25820254  1
  H  H641  1  0.97380910  0.92287988  0.08049801  1
  C  C642  1  0.80563232  0.91644559  0.07545323  1
  H  H643  1  0.97304664  0.69026905  0.33363784  1
  C  C644  1  0.92678770  0.90697175  0.32990374  1
  C  C645  1  0.81373336  0.86534750  0.24752378  1
  C  C646  1  0.95642901  0.93272366  0.15114653  1
  H  H647  1  0.97541373  0.80437807  0.30316041  1
  C  C648  1  0.77169932  0.67798857  0.44406410  1
  C  C649  1  0.78693944  0.77258155  0.33303674  1
  H  H650  1  0.80221841  0.91060933  0.40399513  1
  C  C651  1  0.78241284  0.74785933  0.06489630  1
  C  C652  1  0.81082967  0.71774223  0.11900553  1
  C  C653  1  0.84539795  0.70840365  0.06379322  1
  H  H654  1  0.79298047  0.59507514  0.37263187  1
  H  H655  1  0.90524527  0.65794233  0.42333944  1
  C  C656  1  0.80318628  0.91382961  0.31394914  1
  C  C657  1  0.85429033  0.63322445  0.19971606  1
  H  H658  1  0.80974341  0.71205290  0.21157175  1
  C  C659  1  0.77083108  0.61826433  0.41806817  1
  C  C660  1  0.92107683  0.69404623  0.45383493  1
  C  C661  1  0.87293749  0.67488011  0.12956057  1
  C  C662  1  0.85492734  0.80193235  0.34102505  1
  H  H663  1  0.99359732  0.55078989  0.26430078  1
  H  H664  1  0.84997140  0.52860100  0.31581122  1
  H  H665  1  0.82432809  0.62651709  0.21408454  1
  H  H666  1  0.82706943  0.82469493  0.09378627  1
  O  O667  1  0.99729503  0.82097968  0.16934328  1
  C  C668  1  0.86525756  0.75228857  0.40376718  1
  C  C669  1  0.91241939  0.67628340  0.11865201  1
  C  C670  1  0.97762924  0.63591054  0.17883314  1
  O  O671  1  0.90841906  0.91580086  0.40828441  1
  H  H672  1  0.93529495  0.57231929  0.31861938  1
  H  H673  1  0.82707436  0.55022568  0.13289989  1
  C  C674  1  0.92344393  0.79729257  0.48998874  1
  C  C675  1  0.96472614  0.72229806  0.02859036  1
  H  H676  1  0.75141324  0.84907322  0.18100035  1
  H  H677  1  0.93167146  0.52120977  0.15793158  1
  C  C678  1  0.99866823  0.61282067  0.09402348  1
  H  H679  1  0.83963783  0.67446289  0.48467423  1
  O  O680  1  0.79297106  0.50077791  0.30286223  1
  H  H681  1  0.90745237  0.83832261  0.49633673  1
  H  H682  1  0.98421378  0.90891191  0.46120444  1
  O  O683  1  0.92618838  0.71529744  0.04617809  1
  C  C684  1  0.83343992  0.51281230  0.07425784  1
  C  C685  1  0.98120147  0.50459166  0.25293612  1
  O  O686  1  0.75146299  0.77729406  0.30519865  1
  H  H687  1  0.92167356  0.99503300  0.23672980  1
  H  H688  1  0.75762640  0.76282823  0.10602079  1
  C  C689  1  0.93805898  0.98410812  0.16480793  1
  C  C690  1  0.97758252  0.73488797  0.54018999  1
  C  C691  1  0.82661301  0.76275802  0.90558524  1
  H  H692  1  0.88225715  0.72472277  0.91907196  1
  C  C693  1  0.97604451  0.93898584  0.73411002  1
  C  C694  1  0.79068374  0.76868930  0.95973033  1
  C  C695  1  0.97883795  0.99242621  0.79964342  1
  C  C696  1  0.99556945  0.51701985  0.56615666  1
  C  C697  1  0.76115743  0.79696307  0.89474305  1
  C  C698  1  0.98002379  0.90358003  0.54929167  1
  H  H699  1  0.96276247  0.88162746  0.87638451  1
  H  H700  1  0.83300486  0.78174144  0.82195769  1
  C  C701  1  0.98339469  0.95004382  0.61931281  1
  H  H702  1  0.96994387  0.76135952  0.97526543  1
  C  C703  1  0.96579216  0.88695924  0.78459397  1
  H  H704  1  0.95605351  0.79708495  0.73873080  1
  C  C705  1  0.85360860  0.72949158  0.95402233  1
  C  C706  1  0.97108459  0.84602508  0.59095322  1
  O  O707  1  0.96728266  0.98144968  0.91703953  1
  C  C708  1  0.95853675  0.78933510  0.53542466  1
  C  C709  1  0.96341415  0.84128366  0.70813153  1
  H  H710  1  0.91630728  0.59804776  0.55601655  1
  O  O711  1  0.76668308  0.81538107  0.80081420  1
  C  C712  1  0.95682413  0.52847977  0.57414224  1
  H  H713  1  0.80807899  0.92299906  0.98539283  1
  H  H714  1  0.99538142  0.99544587  0.59513610  1
  C  C715  1  0.94580009  0.58397066  0.54345403  1
  C  C716  1  0.97219905  0.62747583  0.51117712  1
  H  H717  1  0.82711537  0.53141720  0.99066891  1
  H  H718  1  0.97726522  0.68288932  0.99099112  1
  H  H719  1  0.75233947  0.75032003  0.53679528  1
