# generated using pymatgen
data_CuH13C21O5
_symmetry_space_group_name_H-M   'P 1'
_cell_length_a   32.54654296
_cell_length_b   19.87639354
_cell_length_c   13.52913297
_cell_angle_alpha   90.00000000
_cell_angle_beta   90.00000000
_cell_angle_gamma   90.00000000
_symmetry_Int_Tables_number   1
_chemical_formula_structural   CuH13C21O5
_chemical_formula_sum   'Cu18 H234 C378 O90'
_cell_volume   8752.10294571
_cell_formula_units_Z   18
loop_
 _symmetry_equiv_pos_site_id
 _symmetry_equiv_pos_as_xyz
  1  'x, y, z'
loop_
 _atom_site_type_symbol
 _atom_site_label
 _atom_site_symmetry_multiplicity
 _atom_site_fract_x
 _atom_site_fract_y
 _atom_site_fract_z
 _atom_site_occupancy
  C  C0  1  0.11924537  0.09119669  0.21696138  1
  H  H1  1  0.21559175  0.37298392  0.41338263  1
  C  C2  1  0.04001356  0.09051846  0.49262824  1
  C  C3  1  0.16629956  0.39226713  0.10926647  1
  H  H4  1  0.04773949  0.24044723  0.31191939  1
  C  C5  1  0.12703876  0.12645630  0.30593506  1
  C  C6  1  0.09400985  0.13443296  0.38813510  1
  C  C7  1  0.24993134  0.15243513  0.41896901  1
  C  C8  1  0.02318279  0.29351874  0.17883406  1
  C  C9  1  0.05541086  0.34770741  0.16628938  1
  C  C10  1  0.16259417  0.07107760  0.04842620  1
  H  H11  1  0.07049839  0.03208529  0.36596196  1
  H  H12  1  0.08753531  0.18903739  0.19644044  1
  H  H13  1  0.22333527  0.13707108  0.46427699  1
  C  C14  1  0.11947289  0.38302689  0.36159372  1
  H  H15  1  0.12381760  0.36542197  0.28926646  1
  H  H16  1  0.09779465  0.48614253  0.32360208  1
  C  C17  1  0.08544223  0.36102386  0.41089163  1
  C  C18  1  0.10840332  0.45507504  0.14903559  1
  C  C19  1  0.17944706  0.44374007  0.03945332  1
  O  O20  1  0.10940578  0.27172636  0.10756830  1
  C  C21  1  0.09621055  0.33075316  0.13406298  1
  C  C22  1  0.20151538  0.14640606  0.28366477  1
  C  C23  1  0.19816460  0.35014241  0.15132035  1
  C  C24  1  0.14450986  0.43403970  0.40591971  1
  H  H25  1  0.06675885  0.32141023  0.37409365  1
  H  H26  1  0.11840219  0.23718678  0.42480553  1
  C  C27  1  0.16437482  0.15485013  0.33617835  1
  H  H28  1  0.16544661  0.17617892  0.41423662  1
  H  H29  1  0.18981113  0.31079205  0.20068508  1
  C  C30  1  0.15604807  0.09562956  0.15658820  1
  C  C31  1  0.08601917  0.20933290  0.12363252  1
  C  C32  1  0.08133745  0.03293525  0.09696651  1
  C  C33  1  0.04073823  0.41106986  0.18313482  1
  C  C34  1  0.19382490  0.12005692  0.18585563  1
  H  H35  1  0.09575899  0.16985131  0.06929197  1
  O  O36  1  0.08339384  0.06436179  0.19276520  1
  C  C37  1  0.09492068  0.19830547  0.43899437  1
  H  H38  1  0.08863802  0.06264028  0.03242545  1
  H  H39  1  0.04921527  0.01171702  0.08656599  1
  C  C40  1  0.06710487  0.08079996  0.41281124  1
  C  C41  1  0.18369677  0.45930088  0.35128646  1
  H  H42  1  0.17213829  0.20307819  0.09007381  1
  C  C43  1  0.12182194  0.38951536  0.13391642  1
  C  C44  1  0.21857106  0.41653299  0.36791998  1
  C  C45  1  0.02285775  0.24497107  0.25691629  1
  H  H46  1  0.21738703  0.12100675  0.12723246  1
  O  O47  1  0.24237808  0.00135787  0.15891531  1
  C  C48  1  0.23973208  0.36715032  0.13951816  1
  H  H49  1  0.05395565  0.22353246  0.09955563  1
  H  H50  1  0.00858834  0.41111569  0.19754271  1
  C  C51  1  0.06649946  0.46668163  0.16389670  1
  C  C52  1  0.21994225  0.45048480  0.01408070  1
  C  C53  1  0.17601139  0.19235064  0.00851343  1
  C  C54  1  0.24327874  0.16797443  0.31809645  1
  H  H55  1  0.12901008  0.49601143  0.13286417  1
  H  H56  1  0.15896371  0.47720722  0.00136704  1
  C  C57  1  0.16110912  0.00703288  0.00849483  1
  C  C58  1  0.19098092  0.24836631  0.94727891  1
  O  O59  1  0.10678201  0.04744743  0.80783593  1
  O  O60  1  0.00280592  0.22543171  0.64580817  1
  C  C61  1  0.04084915  0.15453590  0.54001042  1
  O  O62  1  0.03182766  0.40388652  0.63849933  1
  C  C63  1  0.17181646  0.12738405  0.97845821  1
  H  H64  1  0.06359560  0.25624367  0.55151138  1
  Cu  Cu65  1  0.01370683  0.05291182  0.72317099  1
  C  C66  1  0.00892278  0.16676741  0.61644958  1
  C  C67  1  0.03985664  0.37667171  0.55456556  1
  H  H68  1  0.09691340  0.45180009  0.63025588  1
  H  H69  1  0.17651391  0.11408813  0.90104497  1
  C  C70  1  0.20447337  0.29375667  0.89793521  1
  C  C71  1  0.10612284  0.43249778  0.55725792  1
  H  H72  1  0.22923869  0.48914580  0.96302266  1
  O  O73  1  0.01307951  0.34015190  0.51169601  1
  C  C74  1  0.14048718  0.45558930  0.50511032  1
  C  C75  1  0.07857056  0.38776431  0.50715152  1
  H  H76  1  0.21568380  0.33700583  0.85757537  1
  H  H77  1  0.24497495  0.45999744  0.51677233  1
  H  H78  1  0.16271290  0.49146688  0.53489837  1
  H  H79  1  0.23837826  0.07711973  0.57066780  1
  H  H80  1  0.24788395  0.03242234  0.74073046  1
  C  C81  1  0.24378967  0.49485494  0.66735153  1
  H  H82  1  0.01772514  0.05112192  0.52206572  1
  C  C83  1  0.06707091  0.20791717  0.51351629  1
  O  O84  1  0.20016695  0.87882556  0.09920422  1
  H  H85  1  0.10358604  0.99013764  0.09410001  1
  C  C86  1  0.14240651  0.81149490  0.06104981  1
  H  H87  1  0.16520713  0.63381180  0.19424904  1
  C  C88  1  0.17548107  0.85810558  0.03152342  1
  O  O89  1  0.14610401  0.92750289  0.23923581  1
  C  C90  1  0.08733214  0.71160496  0.12484158  1
  C  C91  1  0.04262311  0.82015718  0.31666036  1
  C  C92  1  0.21964116  0.53168939  0.24816453  1
  C  C93  1  0.05595161  0.65703001  0.14443902  1
  H  H94  1  0.08882475  0.85791380  0.21486668  1
  H  H95  1  0.11011958  0.59331932  0.14056615  1
  C  C96  1  0.04387613  0.86033670  0.49065913  1
  C  C97  1  0.14026590  0.79178162  0.16367266  1
  H  H98  1  0.17564744  0.71607385  0.06380275  1
  O  O99  1  0.14916366  0.56090374  0.28975179  1
  C  C100  1  0.18087754  0.52037829  0.30106506  1
  O  O101  1  0.00210260  0.73818992  0.13328251  1
  C  C102  1  0.23720563  0.70978473  0.46951817  1
  C  C103  1  0.07759547  0.59674241  0.14665819  1
  H  H104  1  0.11322329  0.54176579  0.41711168  1
  O  O105  1  0.15142514  0.95694543  0.39533124  1
  C  C106  1  0.08393622  0.73894968  0.02780591  1
  C  C107  1  0.13257329  0.92889862  0.33301298  1
  C  C108  1  0.10954441  0.53720386  0.33709470  1
  C  C109  1  0.22311851  0.58368594  0.17216077  1
  H  H110  1  0.22534775  0.57248639  0.44501806  1
  H  H111  1  0.08551639  0.57284801  0.31368247  1
  C  C112  1  0.11409463  0.74254835  0.19587106  1
  C  C113  1  0.00964055  0.54838070  0.15613897  1
  C  C114  1  0.19295265  0.63350900  0.14797920  1
  H  H115  1  0.11231466  0.72279064  0.27517337  1
  H  H116  1  0.02667029  0.79177271  0.25693113  1
  C  C117  1  0.07543781  0.86002174  0.29227654  1
  C  C118  1  0.23596441  0.67577768  0.01698049  1
  C  C119  1  0.09482316  0.89543196  0.36946714  1
  C  C120  1  0.07903200  0.89685792  0.46363680  1
  H  H121  1  0.16136648  0.81165200  0.21525622  1
  Cu  Cu122  1  0.19444898  0.95541515  0.19053155  1
  C  C123  1  0.05163215  0.53946317  0.16135580  1
  C  C124  1  0.19860708  0.81522441  0.48552792  1
  C  C125  1  0.19980228  0.68052736  0.07453673  1
  C  C126  1  0.02501307  0.82662366  0.41234248  1
  C  C127  1  0.22871238  0.77597320  0.43403335  1
  H  H128  1  0.18904974  0.86584062  0.46047393  1
  C  C129  1  0.01424877  0.67484220  0.13956883  1
  H  H130  1  0.24947319  0.91292692  0.39615114  1
  C  C131  1  0.15428040  0.94586332  0.71002969  1
  H  H132  1  0.22951780  0.65828718  0.73724640  1
  C  C133  1  0.22887455  0.56425662  0.52288708  1
  C  C134  1  0.09161129  0.88126100  0.69948369  1
  Cu  Cu135  1  0.22682875  0.83928208  0.86098514  1
  H  H136  1  0.21015424  0.90380258  0.64515981  1
  H  H137  1  0.13444514  0.69225419  0.81232731  1
  H  H138  1  0.11401190  0.80425843  0.91995426  1
  H  H139  1  0.05825503  0.87630307  0.71526786  1
  H  H140  1  0.09538106  0.79505089  0.59839813  1
  C  C141  1  0.22467596  0.61775783  0.58881031  1
  H  H142  1  0.03080493  0.85447515  0.56836238  1
  C  C143  1  0.23184464  0.61282272  0.69267164  1
  C  C144  1  0.13260474  0.72285969  0.74199780  1
  C  C145  1  0.17651099  0.89746599  0.65881655  1
  H  H146  1  0.10084843  0.70833354  0.71313964  1
  O  O147  1  0.21471069  0.75225489  0.88897375  1
  C  C148  1  0.21281220  0.68727665  0.54732866  1
  O  O149  1  0.24846938  0.91473931  0.81642355  1
  C  C150  1  0.24377385  0.55086824  0.73073315  1
  H  H151  1  0.13650733  0.77799559  0.76189901  1
  C  C152  1  0.15502719  0.83973980  0.62355186  1
  C  C153  1  0.11244275  0.94046332  0.73147647  1
  O  O154  1  0.16360567  0.69343354  0.68794584  1
  C  C155  1  0.18200618  0.72018379  0.60584784  1
  C  C156  1  0.11210470  0.83384504  0.63929042  1
  O  O157  1  0.18181691  0.87026869  0.94286322  1
  H  H158  1  0.05794946  0.72472488  0.98638829  1
  H  H159  1  0.16329073  0.98326853  0.93648286  1
  C  C160  1  0.17908912  0.78552725  0.56759510  1
  O  O161  1  0.04885290  0.99389829  0.78433708  1
  C  C162  1  0.24298670  0.71417152  0.92636362  1
  H  H163  1  0.16892147  0.99451284  0.72383424  1
  C  C164  1  0.08917100  0.99885579  0.77484152  1
  C  C165  1  0.02004938  0.73421424  0.74565123  1
  O  O166  1  0.04690127  0.74606002  0.79857425  1
  C  C167  1  0.23759916  0.50147492  0.56339949  1
  H  H168  1  0.09600015  0.92868300  0.51528997  1
  C  C169  1  0.11306896  0.78618867  0.99597299  1
  H  H170  1  0.01542345  0.71888719  0.53066599  1
  C  C171  1  0.31548353  0.19163830  0.30838468  1
  O  O172  1  0.42548265  0.38562790  0.43975476  1
  H  H173  1  0.37420199  0.10917969  0.30283241  1
  C  C174  1  0.26657181  0.01930519  0.22463649  1
  C  C175  1  0.39151793  0.25484589  0.10381980  1
  C  C176  1  0.37951520  0.14810889  0.24783782  1
  C  C177  1  0.34971892  0.19899053  0.23071538  1
  C  C178  1  0.41471787  0.14856429  0.19216785  1
  C  C179  1  0.30888716  0.38545391  0.45343620  1
  C  C180  1  0.44801303  0.48062807  0.12818534  1
  H  H181  1  0.45237350  0.47805659  0.41974529  1
  C  C182  1  0.28912900  0.15824707  0.46320637  1
  H  H183  1  0.40125052  0.22854500  0.33079137  1
  O  O184  1  0.32311205  0.39684285  0.06521569  1
  C  C185  1  0.25653020  0.44219231  0.33137115  1
  H  H186  1  0.32585955  0.44057002  0.21580886  1
  H  H187  1  0.32177267  0.05354287  0.38220394  1
  C  C188  1  0.32439906  0.18419174  0.41018217  1
  H  H189  1  0.39869077  0.29986667  0.05790609  1
  C  C190  1  0.41335071  0.47952555  0.18703800  1
  C  C191  1  0.35523132  0.24993090  0.16039132  1
  H  H192  1  0.47216008  0.31333448  0.12484179  1
  C  C193  1  0.31990240  0.00222094  0.35964721  1
  H  H194  1  0.33180329  0.29082914  0.15200535  1
  C  C195  1  0.45458259  0.35929784  0.14769145  1
  C  C196  1  0.29794429  0.41138809  0.35972803  1
  C  C197  1  0.38585943  0.39198063  0.41357373  1
  C  C198  1  0.37111783  0.41269935  0.31989899  1
  H  H199  1  0.43827175  0.10896965  0.19608271  1
  C  C200  1  0.41945053  0.20218191  0.12451396  1
  H  H201  1  0.47890462  0.02872067  0.07298675  1
  C  C202  1  0.27813670  0.18405243  0.25628440  1
  H  H203  1  0.27717550  0.18469148  0.17412733  1
  C  C204  1  0.32964707  0.42244243  0.29153037  1
  H  H205  1  0.48475550  0.40183348  0.41548949  1
  C  C206  1  0.41953998  0.35676548  0.20892608  1
  C  C207  1  0.40139142  0.41910727  0.23511955  1
  H  H208  1  0.36681804  0.28303081  0.39510875  1
  C  C209  1  0.45733362  0.19761889  0.06901031  1
  H  H210  1  0.40816101  0.30944653  0.23736486  1
  C  C211  1  0.39008510  0.24106161  0.40421162  1
  H  H212  1  0.26752539  0.07610071  0.21918136  1
  C  C213  1  0.46917268  0.42018385  0.11250916  1
  O  O214  1  0.48353616  0.15059818  0.08125260  1
  C  C215  1  0.45515246  0.42563496  0.39319665  1
  O  O216  1  0.36196736  0.19613719  0.45601964  1
  C  C217  1  0.35060104  0.37838217  0.47283150  1
  H  H218  1  0.45682369  0.42917591  0.30919883  1
  C  C219  1  0.25644717  0.49889944  0.26963759  1
  C  C220  1  0.29235594  0.42940668  0.03068356  1
  H  H221  1  0.26296163  0.34350892  0.18626346  1
  H  H222  1  0.43506314  0.01326342  0.14836241  1
  C  C223  1  0.25130407  0.41325882  0.06428229  1
  H  H224  1  0.47382445  0.31222115  0.34406228  1
  H  H225  1  0.41396275  0.26297937  0.45613806  1
  C  C226  1  0.31095572  0.06825083  0.86795046  1
  C  C227  1  0.32879991  0.15766874  0.62620608  1
  C  C228  1  0.30483335  0.09223821  0.76215916  1
  H  H229  1  0.47995029  0.48940010  0.89171064  1
  H  H230  1  0.28754843  0.37234310  0.51446163  1
  H  H231  1  0.37159544  0.02068325  0.51616320  1
  C  C232  1  0.26969173  0.06839402  0.71016567  1
  O  O233  1  0.34202445  0.25886862  0.91305732  1
  Cu  Cu234  1  0.36743496  0.42139307  0.99991456  1
  C  C235  1  0.26469527  0.09091530  0.61422790  1
  H  H236  1  0.31394063  0.25079293  0.75162726  1
  O  O237  1  0.41984276  0.19739857  0.75737674  1
  C  C238  1  0.36359225  0.32092513  0.77736659  1
  Cu  Cu239  1  0.44021576  0.22011381  0.87673447  1
  H  H240  1  0.30857188  0.28191681  0.56750709  1
  H  H241  1  0.35401428  0.16980675  0.77871429  1
  C  C242  1  0.38791734  0.38769680  0.64229602  1
  H  H243  1  0.47838667  0.10273184  0.81890899  1
  C  C244  1  0.38920528  0.37222379  0.74154681  1
  C  C245  1  0.33537666  0.28689934  0.71747270  1
  C  C246  1  0.33109070  0.14400391  0.72816764  1
  H  H247  1  0.49017402  0.07883802  0.58121761  1
  H  H248  1  0.45493586  0.28016890  0.68912746  1
  H  H249  1  0.35196232  0.19014068  0.58843047  1
  O  O250  1  0.42550765  0.09354703  0.70192135  1
  O  O251  1  0.28595190  0.04442525  0.91801493  1
  O  O252  1  0.35061180  0.08469979  0.90164512  1
  O  O253  1  0.38649248  0.34384168  0.93474269  1
  H  H254  1  0.41041510  0.39853121  0.78725935  1
  O  O255  1  0.26938571  0.42544831  0.80129241  1
  C  C256  1  0.29383531  0.13542909  0.56979833  1
  C  C257  1  0.43630235  0.15508144  0.69590156  1
  C  C258  1  0.36238549  0.30760184  0.88323022  1
  Cu  Cu259  1  0.39318974  0.08199975  0.81333131  1
  C  C260  1  0.33086457  0.30511233  0.61749447  1
  H  H261  1  0.40717607  0.42635801  0.61125448  1
  C  C262  1  0.35883253  0.35394831  0.57755885  1
  C  C263  1  0.47133485  0.17883891  0.64283412  1
  O  O264  1  0.40454694  0.46872650  0.92538395  1
  C  C265  1  0.47861591  0.24897174  0.65024852  1
  Cu  Cu266  1  0.31866145  0.47303644  0.83433578  1
  Cu  Cu267  1  0.36736136  0.17123334  0.93594544  1
  C  C268  1  0.49753578  0.13438931  0.58608562  1
  O  O269  1  0.29982518  0.47442254  0.96611197  1
  H  H270  1  0.48086624  0.39146267  0.81633621  1
  O  O271  1  0.25642363  0.37822025  0.65567872  1
  C  C272  1  0.25691697  0.42768366  0.70564398  1
  O  O273  1  0.46120835  0.23634524  0.99289541  1
  H  H274  1  0.34486665  0.97902880  0.19559996  1
  H  H275  1  0.25852044  0.67846556  0.42753319  1
  H  H276  1  0.40970448  0.65231535  0.15465737  1
  C  C277  1  0.34083240  0.95117759  0.40694933  1
  H  H278  1  0.28522057  0.54743799  0.13361565  1
  C  C279  1  0.25257423  0.80543443  0.34897942  1
  H  H280  1  0.35469489  0.70483017  0.26963799  1
  C  C281  1  0.33400698  0.96258576  0.11897147  1
  H  H282  1  0.30586634  0.99560652  0.09923202  1
  C  C283  1  0.35468906  0.71080826  0.18856544  1
  O  O284  1  0.44389993  0.63444830  0.00283595  1
  H  H285  1  0.33682571  0.90218071  0.37765046  1
  C  C286  1  0.29124964  0.97952116  0.28807783  1
  C  C287  1  0.38408495  0.68309430  0.12541364  1
  C  C288  1  0.46433772  0.61633158  0.28726454  1
  Cu  Cu289  1  0.48730526  0.66177107  0.08485371  1
  C  C290  1  0.30553640  0.86461279  0.19403702  1
  O  O291  1  0.32921386  0.89262294  0.12010702  1
  C  C292  1  0.29766394  0.79322822  0.20922730  1
  O  O293  1  0.46532294  0.60527360  0.19050781  1
  C  C294  1  0.32429991  0.74976440  0.13958478  1
  O  O295  1  0.44276173  0.65836295  0.32474234  1
  C  C296  1  0.31977775  0.75727206  0.03333700  1
  C  C297  1  0.26047190  0.87582360  0.34183804  1
  H  H298  1  0.45598481  0.52541813  0.08471974  1
  H  H299  1  0.46829930  0.94520465  0.12587867  1
  C  C300  1  0.38084746  0.69343511  0.02123595  1
  C  C301  1  0.28674554  0.90286604  0.26940286  1
  H  H302  1  0.39942741  0.52953202  0.20014286  1
  C  C303  1  0.26935821  0.63514590  0.04753786  1
  C  C304  1  0.26231743  0.58683875  0.11909679  1
  H  H305  1  0.28567925  0.51416496  0.24275671  1
  H  H306  1  0.35957664  0.98297370  0.07165951  1
  C  C307  1  0.45503539  0.99050931  0.09021201  1
  C  C308  1  0.27141918  0.76152771  0.27768436  1
  H  H309  1  0.26668571  0.70622849  0.27581610  1
  C  C310  1  0.48633171  0.56861507  0.35229099  1
  C  C311  1  0.48237466  0.57958554  0.45570615  1
  H  H312  1  0.29269398  0.78117503  0.00534771  1
  H  H313  1  0.29812828  0.63891508  0.00339259  1
  H  H314  1  0.46323201  0.62099052  0.48067710  1
  C  C315  1  0.37023086  0.96959184  0.48388192  1
  C  C316  1  0.41675135  0.85845086  0.54681927  1
  C  C317  1  0.39218397  0.92475670  0.73413333  1
  H  H318  1  0.39151712  0.58772019  0.70330604  1
  C  C319  1  0.33007861  0.90857780  0.87924978  1
  C  C320  1  0.45420409  0.62643458  0.68414542  1
  O  O321  1  0.27292525  0.70023547  0.87707768  1
  C  C322  1  0.41548337  0.66628791  0.95825858  1
  O  O323  1  0.36266310  0.52161522  0.82971229  1
  C  C324  1  0.42443266  0.58528352  0.72464551  1
  H  H325  1  0.44723592  0.66985669  0.63430185  1
  C  C326  1  0.37089720  0.90034091  0.90798877  1
  H  H327  1  0.30410913  0.90095422  0.93220368  1
  C  C328  1  0.34987740  0.73051220  0.97573804  1
  C  C329  1  0.39351792  0.91479272  0.51704545  1
  C  C330  1  0.40209202  0.91276955  0.83553301  1
  H  H331  1  0.45520803  0.84258069  0.71750329  1
  C  C332  1  0.32063583  0.91836527  0.78041669  1
  O  O333  1  0.26792463  0.90846185  0.66359505  1
  C  C334  1  0.46210454  0.93566849  0.93892907  1
  C  C335  1  0.46971928  0.86400805  0.78358948  1
  H  H336  1  0.47353016  0.73817843  0.73802882  1
  C  C337  1  0.35126148  0.92798056  0.70918633  1
  O  O338  1  0.42053551  0.69006361  0.87807476  1
  O  O339  1  0.46894562  0.98309352  0.61566936  1
  C  C340  1  0.44787098  0.90380057  0.84913228  1
  H  H341  1  0.35070239  0.73398787  0.89430957  1
  C  C342  1  0.49335806  0.61960682  0.72943369  1
  H  H343  1  0.34252872  0.93355790  0.63063647  1
  H  H344  1  0.41753498  0.92927127  0.67917243  1
  C  C345  1  0.47321780  0.52733264  0.83780134  1
  C  C346  1  0.27613203  0.91499321  0.74890536  1
  H  H347  1  0.37962570  0.89303312  0.98587391  1
  C  C348  1  0.43385363  0.53877184  0.79991082  1
  O  O349  1  0.43428219  0.81067036  0.56673794  1
  C  C350  1  0.39916798  0.50642492  0.85229330  1
  H  H351  1  0.25020122  0.54543262  0.81114059  1
  C  C352  1  0.49047137  0.99338682  0.68175587  1
  O  O353  1  0.43778275  0.97175050  0.99777718  1
  C  C354  1  0.59594874  0.12798958  0.36478302  1
  H  H355  1  0.57473052  0.34016300  0.19275387  1
  H  H356  1  0.68226043  0.38622107  0.37368825  1
  C  C357  1  0.61668567  0.41532789  0.13918802  1
  H  H358  1  0.50118864  0.23697527  0.35082180  1
  C  C359  1  0.53011196  0.48797132  0.48686775  1
  C  C360  1  0.62795115  0.35951266  0.29362411  1
  O  O361  1  0.52836641  0.36887008  0.04333346  1
  O  O362  1  0.54242998  0.31759382  0.35281031  1
  H  H363  1  0.70685730  0.46991468  0.24944881  1
  C  C364  1  0.61706015  0.31491661  0.37881057  1
  H  H365  1  0.55334563  0.43753887  0.35716936  1
  H  H366  1  0.73437609  0.36779223  0.02977829  1
  H  H367  1  0.61937216  0.03514501  0.05550466  1
  C  C368  1  0.65402708  0.29737976  0.42630329  1
  C  C369  1  0.67939352  0.44004284  0.23713992  1
  C  C370  1  0.56683057  0.07784367  0.33463537  1
  C  C371  1  0.59339864  0.00425376  0.08233308  1
  Cu  Cu372  1  0.53920256  0.15416703  0.06444821  1
  C  C373  1  0.50302212  0.29036295  0.37314052  1
  C  C374  1  0.57527445  0.29858045  0.40382744  1
  C  C375  1  0.60137506  0.37015764  0.20739021  1
  O  O376  1  0.62844018  0.25082733  0.11144857  1
  H  H377  1  0.72287164  0.21214525  0.45141774  1
  C  C378  1  0.61633962  0.11827644  0.45318195  1
  H  H379  1  0.59950299  0.41709154  0.06961688  1
  H  H380  1  0.55130058  0.13006660  0.49586291  1
  H  H381  1  0.59969772  0.17735357  0.32610015  1
  H  H382  1  0.64051174  0.15326097  0.47879150  1
  O  O383  1  0.54687281  0.14700273  0.20334413  1
  H  H384  1  0.68425147  0.30975074  0.39155760  1
  C  C385  1  0.66619219  0.39429778  0.30709306  1
  C  C386  1  0.53902391  0.08992252  0.25182905  1
  C  C387  1  0.65366497  0.45029626  0.15258894  1
  C  C388  1  0.53346582  0.47709217  0.38303690  1
  C  C389  1  0.61219646  0.22675341  0.03932530  1
  C  C390  1  0.55626559  0.01937236  0.39163306  1
  H  H391  1  0.67545564  0.03387601  0.43640318  1
  C  C392  1  0.67920588  0.49712854  0.44546108  1
  H  H393  1  0.64527055  0.35354247  0.00424292  1
  C  C394  1  0.50992020  0.41898495  0.05870172  1
  H  H395  1  0.59977242  0.48843817  0.43206748  1
  O  O396  1  0.59438893  0.16936897  0.03365099  1
  O  O397  1  0.52508825  0.47682049  0.03461204  1
  O  O398  1  0.66470699  0.00116843  0.19821916  1
  C  C399  1  0.57777156  0.25926935  0.49008216  1
  H  H400  1  0.50320980  0.29226152  0.45536233  1
  O  O401  1  0.51057004  0.05453972  0.22871859  1
  C  C402  1  0.57678822  0.01128649  0.48376857  1
  H  H403  1  0.74542674  0.01123244  0.01597884  1
  H  H404  1  0.66051038  0.13925616  0.88121122  1
  C  C405  1  0.50896354  0.07098936  0.82201991  1
  H  H406  1  0.63713690  0.42556322  0.86259643  1
  H  H407  1  0.56311173  0.27385107  0.71934914  1
  C  C408  1  0.51177062  0.27314997  0.59543234  1
  C  C409  1  0.74396243  0.18537127  0.90365796  1
  C  C410  1  0.62904328  0.39846369  0.63731021  1
  C  C411  1  0.59380286  0.10099749  0.68031905  1
  H  H412  1  0.70682045  0.34835409  0.85563501  1
  C  C413  1  0.67642513  0.07914580  0.73983025  1
  C  C414  1  0.53761934  0.23210009  0.53807754  1
  C  C415  1  0.53047705  0.16274911  0.53591124  1
  C  C416  1  0.56041164  0.45038106  0.55027365  1
  C  C417  1  0.61459958  0.11903653  0.76616200  1
  C  C418  1  0.62509274  0.33536057  0.94368971  1
  H  H419  1  0.55354662  0.00764440  0.94532335  1
  H  H420  1  0.60901590  0.21330801  0.61305784  1
  C  C421  1  0.69000355  0.24780378  0.69116588  1
  C  C422  1  0.72810222  0.24566212  0.73642529  1
  O  O423  1  0.51495103  0.41933581  0.68422472  1
  C  C424  1  0.65223701  0.11682193  0.81158308  1
  H  H425  1  0.65627792  0.37567323  0.67958688  1
  C  C426  1  0.60829331  0.27126219  0.94878972  1
  H  H427  1  0.56992603  0.19793058  0.86894187  1
  C  C428  1  0.62259284  0.37447219  0.85858039  1
  C  C429  1  0.58618985  0.24825377  0.86629286  1
  C  C430  1  0.55315380  0.42160429  0.64433121  1
  C  C431  1  0.58289163  0.28701646  0.78142961  1
  C  C432  1  0.59099310  0.39577496  0.68424424  1
  H  H433  1  0.66233742  0.24939086  0.73575946  1
  C  C434  1  0.73191736  0.24490842  0.85100150  1
  C  C435  1  0.66633286  0.05852429  0.64297521  1
  C  C436  1  0.68962740  0.25227056  0.58651210  1
  C  C437  1  0.59871071  0.35364907  0.77606882  1
  C  C438  1  0.62469946  0.07034601  0.61567888  1
  H  H439  1  0.72018814  0.37368792  0.59303217  1
  H  H440  1  0.55900375  0.09956004  0.66800481  1
  C  C441  1  0.71602991  0.05889586  0.78475329  1
  H  H442  1  0.53469122  0.41858338  0.82706671  1
  C  C443  1  0.63447885  0.43551471  0.55011162  1
  H  H444  1  0.52146309  0.33505878  0.77226039  1
  C  C445  1  0.72205601  0.30630599  0.89901415  1
  O  O446  1  0.71519119  0.42226960  0.77039647  1
  O  O447  1  0.52592171  0.10352819  0.88368299  1
  H  H448  1  0.51955693  0.32504154  0.60860386  1
  C  C449  1  0.61313709  0.24483700  0.54588340  1
  C  C450  1  0.71079067  0.04284247  0.88934840  1
  C  C451  1  0.65336755  0.26404042  0.51730723  1
  C  C452  1  0.72487621  0.22964548  0.53092729  1
  C  C453  1  0.51141764  0.39183342  0.77911376  1
  C  C454  1  0.71629417  0.41474455  0.54409043  1
  O  O455  1  0.69441710  0.02677170  0.58538567  1
  H  H456  1  0.68085671  0.04014683  0.92511632  1
  C  C457  1  0.74102248  0.45958630  0.80204429  1
  C  C458  1  0.51785773  0.00885359  0.76331932  1
  C  C459  1  0.67881235  0.44571022  0.51622890  1
  H  H460  1  0.57859800  0.00264163  0.82251478  1
  C  C461  1  0.59847116  0.45873556  0.50131623  1
  C  C462  1  0.74641314  0.02814425  0.93794365  1
  C  C463  1  0.60355343  0.06280167  0.51626824  1
  C  C464  1  0.73451385  0.31839110  0.99476078  1
  O  O465  1  0.70116241  0.81237642  0.19773543  1
  C  C466  1  0.57950900  0.63487742  0.33470771  1
  C  C467  1  0.56539168  0.91523988  0.19271890  1
  Cu  Cu468  1  0.73271981  0.58191312  0.13429129  1
  O  O469  1  0.57251737  0.55864918  0.15546951  1
  H  H470  1  0.60348166  0.82249136  0.28404904  1
  O  O471  1  0.54343566  0.64628868  0.08266210  1
  O  O472  1  0.63696899  0.92014945  0.28685235  1
  C  C473  1  0.70911287  0.57908570  0.33165660  1
  O  O474  1  0.63425669  0.51963134  0.01450233  1
  C  C475  1  0.63312857  0.96594633  0.22395643  1
  H  H476  1  0.65115972  0.52609132  0.42743649  1
  O  O477  1  0.65154882  0.76895153  0.10788179  1
  C  C478  1  0.56274685  0.61950970  0.15232042  1
  C  C479  1  0.69295642  0.69610433  0.21607308  1
  C  C480  1  0.53211988  0.90282284  0.12980897  1
  C  C481  1  0.60741751  0.74254532  0.39379172  1
  H  H482  1  0.68289638  0.74193247  0.43074782  1
  O  O483  1  0.69854667  0.51886078  0.07096486  1
  C  C484  1  0.73272689  0.63917647  0.33126917  1
  C  C485  1  0.66153781  0.50143783  0.07586682  1
  C  C486  1  0.67862823  0.76193692  0.16716745  1
  C  C487  1  0.59425283  0.67478736  0.40959076  1
  C  C488  1  0.59544149  0.96262506  0.16777882  1
  Cu  Cu489  1  0.68343795  0.86816620  0.30372857  1
  C  C490  1  0.53200775  0.93841950  0.04097305  1
  C  C491  1  0.59634069  0.76985974  0.30052845  1
  C  C492  1  0.66721354  0.63852981  0.20243896  1
  O  O493  1  0.73648781  0.87162068  0.35472224  1
  H  H494  1  0.56948644  0.88563630  0.26239839  1
  H  H495  1  0.57559977  0.57942989  0.34793650  1
  H  H496  1  0.51135649  0.50350837  0.23586336  1
  C  C497  1  0.58131026  0.72921644  0.22418902  1
  H  H498  1  0.64224325  0.64227885  0.14514675  1
  H  H499  1  0.70409458  0.96178777  0.47138982  1
  C  C500  1  0.67670729  0.58274019  0.25895433  1
  C  C501  1  0.57327899  0.66128337  0.24014240  1
  Cu  Cu502  1  0.71614360  0.96587460  0.21558323  1
  H  H503  1  0.57759327  0.75141689  0.14998553  1
  H  H504  1  0.65571165  0.53962641  0.24178346  1
  H  H505  1  0.54203049  0.78437265  0.40961515  1
  C  C506  1  0.72858626  0.69727216  0.27317715  1
  H  H507  1  0.51014729  0.86171741  0.14682461  1
  C  C508  1  0.50978025  0.51494355  0.31672771  1
  C  C509  1  0.67996173  0.99662951  0.49689376  1
  O  O510  1  0.74671846  0.61886194  0.00621203  1
  H  H511  1  0.74943004  0.74219830  0.27590884  1
  C  C512  1  0.71492497  0.52348462  0.40483917  1
  Cu  Cu513  1  0.58028310  0.50561118  0.02961502  1
  H  H514  1  0.52881609  0.98905221  0.37155755  1
  C  C515  1  0.56186169  0.98937611  0.01952829  1
  C  C516  1  0.62411226  0.78545470  0.47912726  1
  C  C517  1  0.66696922  0.77741590  0.47507922  1
  H  H518  1  0.59663490  0.65551408  0.48584458  1
  C  C519  1  0.53658111  0.79057610  0.49177893  1
  H  H520  1  0.67144799  0.76594604  0.68259325  1
  H  H521  1  0.71248746  0.70313028  0.58084818  1
  C  C522  1  0.57641225  0.77579133  0.77099883  1
  H  H523  1  0.68902106  0.90255376  0.64492918  1
  C  C524  1  0.50428879  0.54080703  0.52340845  1
  C  C525  1  0.52522849  0.67285322  0.71610399  1
  C  C526  1  0.59142051  0.71062081  0.74315314  1
  C  C527  1  0.63507857  0.70222199  0.78576093  1
  C  C528  1  0.52856262  0.87579818  0.89566562  1
  H  H529  1  0.71847799  0.60910614  0.54861066  1
  H  H530  1  0.56853831  0.97029441  0.53429144  1
  H  H531  1  0.67381860  0.94148061  0.75693751  1
  C  C532  1  0.63781782  0.94045941  0.75886211  1
  C  C533  1  0.63416864  0.67269281  0.88243181  1
  C  C534  1  0.70558177  0.68332553  0.89009890  1
  H  H535  1  0.60418663  0.66893286  0.92539511  1
  C  C536  1  0.67054762  0.87110330  0.59496972  1
  C  C537  1  0.70737717  0.72245697  0.80507226  1
  C  C538  1  0.67063106  0.64989003  0.92770594  1
  H  H539  1  0.73791035  0.74361490  0.77580693  1
  C  C540  1  0.73479889  0.80439250  0.55717021  1
  C  C541  1  0.50393246  0.56634621  0.79969414  1
  C  C542  1  0.61164464  0.91639753  0.67789934  1
  O  O543  1  0.58185656  0.59235931  0.69464835  1
  C  C544  1  0.68904326  0.81912964  0.53781964  1
  C  C545  1  0.56861313  0.65447917  0.71125517  1
  H  H546  1  0.50258809  0.80210968  0.50057043  1
  C  C547  1  0.62708175  0.58190872  0.68730661  1
  C  C548  1  0.67196458  0.73348062  0.75000458  1
  H  H549  1  0.64603635  0.61837111  0.64411190  1
  H  H550  1  0.64425957  0.58386950  0.75752862  1
  H  H551  1  0.53518955  0.56238685  0.83412322  1
  O  O552  1  0.55955281  0.83629527  0.54934885  1
  H  H553  1  0.59867119  0.81356726  0.79512857  1
  C  C554  1  0.56913943  0.93043623  0.69822679  1
  H  H555  1  0.56084154  0.86636852  0.91013862  1
  C  C556  1  0.53329806  0.78850061  0.76535520  1
  O  O557  1  0.63286777  0.96234675  0.84051521  1
  C  C558  1  0.74557083  0.67612940  0.94718304  1
  C  C559  1  0.62763832  0.87255240  0.59681608  1
  C  C560  1  0.72407498  0.53984568  0.66699227  1
  C  C561  1  0.55783917  0.98057894  0.76842175  1
  H  H562  1  0.54394066  0.90182387  0.66231016  1
  C  C563  1  0.60056958  0.83070720  0.54012997  1
  H  H564  1  0.63213976  0.52997613  0.65972866  1
  H  H565  1  0.69825110  0.50719409  0.65155022  1
  C  C566  1  0.73975329  0.73527498  0.58218367  1
  H  H567  1  0.50271312  0.54907894  0.60697910  1
  H  H568  1  0.67081611  0.61313376  0.98828521  1
  H  H569  1  0.54179344  0.73757887  0.51465768  1
  C  C570  1  0.73501591  0.59762011  0.61567473  1
  C  C571  1  0.51048022  0.84684626  0.81164538  1
  C  C572  1  0.50327624  0.91576162  0.95544060  1
  C  C573  1  0.50681667  0.73546721  0.73302429  1
  H  H574  1  0.65103961  0.96875459  0.51053685  1
  C  C575  1  0.79254697  0.15694812  0.44387466  1
  C  C576  1  0.81778345  0.10111044  0.41844728  1
  H  H577  1  0.76424004  0.15442851  0.04936751  1
  Cu  Cu578  1  0.84005053  0.18893414  0.17692293  1
  O  O579  1  0.81131176  0.03023901  0.07197254  1
  C  C580  1  0.83949891  0.04263794  0.13942943  1
  O  O581  1  0.89291843  0.16995197  0.13707449  1
  O  O582  1  0.92104781  0.11349852  0.25935028  1
  C  C583  1  0.83841720  0.06228413  0.23851393  1
  C  C584  1  0.95918710  0.20466742  0.19406652  1
  H  H585  1  0.93285684  0.25647726  0.06429130  1
  C  C586  1  0.95883588  0.25266227  0.11560276  1
  O  O587  1  0.78735436  0.22089750  0.18975204  1
  C  C588  1  0.98942202  0.19750219  0.26671981  1
  H  H589  1  0.83199928  0.06932281  0.47675930  1
  H  H590  1  0.77795111  0.18820788  0.38669718  1
  H  H591  1  0.99072846  0.15814479  0.32617486  1
  C  C592  1  0.76976388  0.27259245  0.14478433  1
  C  C593  1  0.92368154  0.15676361  0.19912328  1
  C  C594  1  0.82949698  0.08028114  0.32437175  1
  H  H595  1  0.86840547  0.02651096  0.09960238  1
  H  H596  1  0.83519395  0.44027790  0.42990934  1
  C  C597  1  0.75051717  0.44298213  0.49868422  1
  O  O598  1  0.77003681  0.32831837  0.18100223  1
  H  H599  1  0.79411371  0.30918726  0.45727907  1
  C  C600  1  0.75188874  0.26298988  0.04435897  1
  C  C601  1  0.98955289  0.30144799  0.11190944  1
  C  C602  1  0.82914697  0.49601828  0.42684787  1
  H  H603  1  0.99253105  0.33781529  0.05264150  1
  C  C604  1  0.75330082  0.49939658  0.43230033  1
  C  C605  1  0.75374153  0.19646122  0.00160073  1
  O  O606  1  0.91910564  0.30875970  0.62299471  1
  O  O607  1  0.80364729  0.26158991  0.72901083  1
  H  H608  1  0.82082115  0.06010039  0.76219002  1
  H  H609  1  0.85811415  0.28480202  0.54884579  1
  C  C610  1  0.82178893  0.14690422  0.61260036  1
  C  C611  1  0.78953213  0.40822933  0.53858382  1
  H  H612  1  0.79701742  0.25319254  0.88320719  1
  C  C613  1  0.86268982  0.38088117  0.62562328  1
  H  H614  1  0.81546308  0.14182737  0.69386139  1
  H  H615  1  0.78570974  0.49511444  0.63214977  1
  C  C616  1  0.76782160  0.24583901  0.69198071  1
  O  O617  1  0.98778880  0.11742309  0.64257891  1
  H  H618  1  0.78667342  0.33657676  0.81624094  1
  H  H619  1  0.84002410  0.30369685  0.84142977  1
  C  C620  1  0.80766325  0.28771304  0.82457014  1
  O  O621  1  0.92629730  0.40148018  0.70918447  1
  C  C622  1  0.84347016  0.33228020  0.56214003  1
  O  O623  1  0.85439780  0.11649164  0.60125295  1
  C  C624  1  0.90446541  0.36314233  0.65529480  1
  Cu  Cu625  1  0.97145085  0.29732889  0.58060167  1
  C  C626  1  0.80595743  0.45163646  0.61464118  1
  C  C627  1  0.84304288  0.43825845  0.66085390  1
  C  C628  1  0.82160745  0.02142697  0.95637809  1
  C  C629  1  0.76009288  0.21949669  0.59010424  1
  C  C630  1  0.79001373  0.05126531  0.79110403  1
  C  C631  1  0.79263837  0.17813985  0.54242504  1
  C  C632  1  0.78540878  0.03604429  0.89392255  1
  Cu  Cu633  1  0.98279240  0.40901106  0.68434029  1
  H  H634  1  0.85560198  0.47157632  0.71732916  1
  O  O635  1  0.75845714  0.45133285  0.88639208  1
  C  C636  1  0.80735485  0.34612442  0.50979546  1
  H  H637  1  0.75794663  0.07141510  0.65184057  1
  C  C638  1  0.75443915  0.06195449  0.73401443  1
  H  H639  1  0.75190313  0.13778444  0.86543705  1
  O  O640  1  0.85458679  0.01100299  0.92840209  1
  C  C641  1  0.91731647  0.69555657  0.42928565  1
  C  C642  1  0.99104906  0.61288897  0.14253865  1
  C  C643  1  0.93122029  0.56848462  0.05129038  1
  H  H644  1  0.85388010  0.86090227  0.43318467  1
  C  C645  1  0.97110215  0.91454394  0.30868796  1
  C  C646  1  0.87469867  0.76655022  0.33296474  1
  H  H647  1  0.99075411  0.50407178  0.16799623  1
  C  C648  1  0.86058041  0.57318409  0.12219199  1
  H  H649  1  0.82889682  0.87888067  0.17049349  1
  H  H650  1  0.84096537  0.71396742  0.45244129  1
  C  C651  1  0.98396792  0.78725579  0.41887935  1
  H  H652  1  0.76075849  0.63785166  0.37763438  1
  C  C653  1  0.94461170  0.60590569  0.13508071  1
  H  H654  1  0.93037151  0.64782380  0.27873772  1
  C  C655  1  0.83896659  0.74822871  0.39070418  1
  H  H656  1  0.85293072  0.63026384  0.25614384  1
  O  O657  1  0.80987971  0.52561278  0.02492310  1
  H  H658  1  0.89398191  0.65574674  0.43407628  1
  C  C659  1  0.95511305  0.69409783  0.47179632  1
  C  C660  1  0.91768734  0.62430997  0.21365625  1
  C  C661  1  0.80085685  0.77960496  0.37586064  1
  O  O662  1  0.94229920  0.86268042  0.30714173  1
  O  O663  1  0.76673287  0.92932718  0.23619357  1
  C  C664  1  0.91700899  0.75812746  0.37281272  1
  H  H665  1  0.92438679  0.91853471  0.45005140  1
  H  H666  1  0.94809865  0.80958616  0.12401161  1
  C  C667  1  0.83346419  0.84445447  0.23528093  1
  C  C668  1  0.87094136  0.80975322  0.24698574  1
  H  H669  1  0.77235055  0.77251934  0.42130036  1
  H  H670  1  0.94177303  0.73248995  0.18723260  1
  C  C671  1  0.95003145  0.80469166  0.36318152  1
  C  C672  1  0.99095369  0.72748636  0.47886449  1
  H  H673  1  0.89881996  0.81884423  0.20435903  1
  C  C674  1  0.81766844  0.55397399  0.10873891  1
  C  C675  1  0.87600636  0.61005476  0.20434946  1
  C  C676  1  0.80206630  0.83555855  0.30538478  1
  C  C677  1  0.88939969  0.55707478  0.04793193  1
  C  C678  1  0.95896023  0.75603894  0.12418437  1
  O  O679  1  0.78951189  0.56964681  0.16699727  1
  H  H680  1  0.98078287  0.92183538  0.38787429  1
  H  H681  1  0.99969011  0.90475950  0.26896428  1
  H  H682  1  0.94934112  0.73219397  0.05119738  1
  C  C683  1  0.76769555  0.87978126  0.30028557  1
  O  O684  1  0.78923345  0.52478503  0.40284764  1
  H  H685  1  0.95606794  0.96158465  0.27664102  1
  H  H686  1  0.85289965  0.51965752  0.37848980  1
  Cu  Cu687  1  0.76049275  0.53943452  0.95700503  1
  O  O688  1  0.85280596  0.70932680  0.62209112  1
  H  H689  1  0.77270118  0.89735987  0.54847634  1
  C  C690  1  0.77261461  0.84195923  0.56389392  1
  C  C691  1  0.84602004  0.85742792  0.59437041  1
  C  C692  1  0.91641783  0.93706071  0.60883429  1
  H  H693  1  0.81567909  0.65188093  0.75996306  1
  C  C694  1  0.79352471  0.61795592  0.73084040  1
  H  H695  1  0.80751577  0.53939920  0.83858078  1
  H  H696  1  0.89895704  0.94427410  0.76570816  1
  C  C697  1  0.88881101  0.92851732  0.68847975  1
  C  C698  1  0.81741132  0.73784219  0.60837094  1
  C  C699  1  0.76604942  0.64122413  0.65560828  1
  H  H700  1  0.89844986  0.78923325  0.65896402  1
  H  H701  1  0.83672481  0.87165647  0.75654127  1
  O  O702  1  0.77720131  0.70265032  0.92703023  1
  C  C703  1  0.89196544  0.75172143  0.60280079  1
  C  C704  1  0.85409999  0.88673944  0.68768836  1
  C  C705  1  0.80899313  0.80864471  0.58925701  1
  H  H706  1  0.91955885  0.72005777  0.60002167  1
  C  C707  1  0.77768032  0.70729706  0.61197367  1
  C  C708  1  0.78623635  0.55589483  0.77996515  1
  C  C709  1  0.75154874  0.52319938  0.74648730  1
  O  O710  1  0.99277273  0.71997022  0.69457757  1
  C  C711  1  0.95815368  0.96922544  0.61956589  1
  H  H712  1  0.88826227  0.77254263  0.52625834  1
  O  O713  1  0.97708804  0.97575312  0.54429035  1
  O  O714  1  0.97053769  0.98879950  0.70525780  1
  H  H715  1  0.95255651  0.55079478  0.99429871  1
  H  H716  1  0.87522592  0.52978777  0.98363632  1
  C  C717  1  0.86598223  0.87842477  0.50649884  1
  H  H718  1  0.83341778  0.51606826  0.50144325  1
  C  C719  1  0.90539187  0.91230115  0.51540909  1
