# generated using pymatgen
data_CuH13C21O5
_symmetry_space_group_name_H-M   'P 1'
_cell_length_a   34.20865595
_cell_length_b   27.52122024
_cell_length_c   10.48867147
_cell_angle_alpha   90.00000000
_cell_angle_beta   90.00000000
_cell_angle_gamma   90.00000000
_symmetry_Int_Tables_number   1
_chemical_formula_structural   CuH13C21O5
_chemical_formula_sum   'Cu18 H234 C378 O90'
_cell_volume   9874.70612411
_cell_formula_units_Z   18
loop_
 _symmetry_equiv_pos_site_id
 _symmetry_equiv_pos_as_xyz
  1  'x, y, z'
loop_
 _atom_site_type_symbol
 _atom_site_label
 _atom_site_symmetry_multiplicity
 _atom_site_fract_x
 _atom_site_fract_y
 _atom_site_fract_z
 _atom_site_occupancy
  C  C0  1  0.22471742  0.16457628  0.23675489  1
  C  C1  1  0.22547056  0.16345959  0.10179547  1
  C  C2  1  0.16700909  0.20054209  0.31657120  1
  C  C3  1  0.05129583  0.07512246  0.32033713  1
  H  H4  1  0.06654124  0.04173025  0.36073958  1
  C  C5  1  0.13346499  0.20667864  0.38773322  1
  C  C6  1  0.18777887  0.15709718  0.31638355  1
  H  H7  1  0.05733032  0.22018630  0.32568085  1
  H  H8  1  0.07547151  0.09955249  0.29431018  1
  C  C9  1  0.15581336  0.03750614  0.11225953  1
  C  C10  1  0.17801927  0.11426941  0.37970603  1
  O  O11  1  0.19750191  0.07265472  0.37724038  1
  H  H12  1  0.11439618  0.03296540  0.27667164  1
  H  H13  1  0.22311160  0.07981981  0.19510738  1
  C  C14  1  0.14436913  0.12148429  0.46047471  1
  O  O15  1  0.02257497  0.09714994  0.40065447  1
  C  C16  1  0.14233570  0.02035971  0.23008667  1
  O  O17  1  0.10064035  0.08519158  0.06368243  1
  C  C18  1  0.13247788  0.07328855  0.03891017  1
  C  C19  1  0.12338725  0.16424253  0.46205086  1
  C  C20  1  0.23212307  0.06838826  0.28987101  1
  H  H21  1  0.02609818  0.22644226  0.14947260  1
  H  H22  1  0.03921642  0.06158811  0.22624343  1
  O  O23  1  0.09091271  0.22659482  0.07915330  1
  C  C24  1  0.19088695  0.02116476  0.05437982  1
  H  H25  1  0.19666399  0.15677414  0.05170846  1
  O  O26  1  0.15162413  0.21209870  0.03955835  1
  C  C27  1  0.00101922  0.24551153  0.19720004  1
  C  C28  1  0.12334723  0.23845192  0.04279996  1
  H  H29  1  0.24278958  0.02966554  0.29043068  1
  H  H30  1  0.18055578  0.23124703  0.26343437  1
  C  C31  1  0.07204469  0.25376106  0.32866965  1
  C  C32  1  0.06505279  0.34454983  0.32694076  1
  H  H33  1  0.16107067  0.47828411  0.17474286  1
  C  C34  1  0.12774422  0.29530613  0.01182839  1
  C  C35  1  0.13951585  0.47182634  0.48944560  1
  C  C36  1  0.12610179  0.39175176  0.38532393  1
  C  C37  1  0.10691707  0.37792694  0.02936033  1
  H  H38  1  0.08516418  0.40526855  0.05281813  1
  C  C39  1  0.14858389  0.49268159  0.36954367  1
  H  H40  1  0.03514582  0.46006047  0.29344471  1
  C  C41  1  0.05820636  0.43328137  0.31505638  1
  C  C42  1  0.05187920  0.29687130  0.30946380  1
  O  O43  1  0.04391589  0.38426214  0.29974300  1
  H  H44  1  0.14427545  0.38735994  0.19511268  1
  C  C45  1  0.00951874  0.28736934  0.27188262  1
  C  C46  1  0.09900464  0.32789417  0.05083707  1
  C  C47  1  0.10441938  0.34244481  0.37004523  1
  C  C48  1  0.15269099  0.46123537  0.26402375  1
  C  C49  1  0.12816615  0.30116607  0.38645001  1
  C  C50  1  0.11084178  0.25500589  0.37276488  1
  H  H51  1  0.15967713  0.30242489  0.40255683  1
  H  H52  1  0.08250930  0.44141691  0.24662138  1
  H  H53  1  0.07203188  0.31401958  0.09914754  1
  C  C54  1  0.14044512  0.41238306  0.27289761  1
  C  C55  1  0.12683824  0.42346802  0.49627505  1
  H  H56  1  0.06963519  0.44130312  0.41701661  1
  C  C57  1  0.16284961  0.20329302  0.72428684  1
  C  C58  1  0.16700586  0.15191407  0.76268428  1
  C  C59  1  0.19721206  0.11771240  0.71543035  1
  O  O60  1  0.09371841  0.19224451  0.75650704  1
  C  C61  1  0.14657816  0.12792987  0.86195151  1
  O  O62  1  0.15143438  0.08600102  0.91447988  1
  H  H63  1  0.22682288  0.21511000  0.69163976  1
  C  C64  1  0.12334058  0.22137820  0.72613669  1
  H  H65  1  0.19954041  0.08370751  0.76706699  1
  C  C66  1  0.22360065  0.13087243  0.61914922  1
  C  C67  1  0.19608039  0.22882786  0.69029197  1
  C  C68  1  0.05246458  0.20950725  0.77509035  1
  H  H69  1  0.11943548  0.14825552  0.89833154  1
  H  H70  1  0.03648124  0.19054528  0.85320315  1
  H  H71  1  0.03466211  0.20801972  0.68411641  1
  C  C72  1  0.06882772  0.05455942  0.66132336  1
  C  C73  1  0.14586652  0.03969466  0.57037462  1
  H  H74  1  0.22133576  0.16051834  0.55183173  1
  H  H75  1  0.03897081  0.05610972  0.70400894  1
  C  C76  1  0.08992470  0.01239911  0.68817677  1
  H  H77  1  0.17596776  0.03505899  0.54378145  1
  H  H78  1  0.19845391  0.03680866  0.95909069  1
  C  C79  1  0.12863142  0.00260008  0.64329769  1
  H  H80  1  0.09729416  0.16454340  0.51752941  1
  C  C81  1  0.08523134  0.09311300  0.59154993  1
  C  C82  1  0.12381470  0.08461488  0.54443530  1
  H  H83  1  0.05499104  0.24870165  0.80101662  1
  O  O84  1  0.23002182  0.00048839  0.65953795  1
  C  C85  1  0.24549811  0.03756762  0.67856118  1
  H  H86  1  0.06803052  0.12544192  0.57388825  1
  C  C87  1  0.20796203  0.49487033  0.91682253  1
  C  C88  1  0.17381799  0.35302679  0.94577196  1
  C  C89  1  0.02747347  0.37370253  0.68476920  1
  H  H90  1  0.21351208  0.41807366  0.96988781  1
  H  H91  1  0.11412944  0.35425942  0.82079595  1
  H  H92  1  0.20195210  0.37033388  0.54455370  1
  C  C93  1  0.06022466  0.38507619  0.75324522  1
  H  H94  1  0.04857040  0.26256606  0.55236546  1
  H  H95  1  0.14736891  0.33985299  0.64738870  1
  C  C96  1  0.22874997  0.34896881  0.55165877  1
  C  C97  1  0.12216164  0.27094015  0.69938866  1
  C  C98  1  0.19354721  0.44922705  0.94910782  1
  C  C99  1  0.16469292  0.30346487  0.95974744  1
  C  C100  1  0.08804451  0.34807439  0.75980216  1
  C  C101  1  0.19010795  0.27875740  0.65526509  1
  H  H102  1  0.20253341  0.36361395  0.90725285  1
  C  C103  1  0.15283767  0.30113546  0.66333237  1
  O  O104  1  0.08472501  0.46785324  0.92412558  1
  C  C105  1  0.02358469  0.32895500  0.61870940  1
  C  C106  1  0.15289811  0.44057832  0.94603694  1
  H  H107  1  0.06354151  0.42094358  0.79838164  1
  H  H108  1  0.18527666  0.27394954  0.93508067  1
  C  C109  1  0.12331424  0.47704401  0.93295251  1
  H  H110  1  0.11619811  0.40835502  0.58840692  1
  C  C111  1  0.14426430  0.38901304  0.97441867  1
  C  C112  1  0.08510411  0.30257363  0.69697434  1
  C  C113  1  0.22580662  0.30046866  0.60044700  1
  C  C114  1  0.05155479  0.29345490  0.61759738  1
  H  H115  1  0.02542581  0.48874675  0.89568107  1
  H  H116  1  0.14031708  0.49423924  0.57666898  1
  O  O117  1  0.00003600  0.45399652  0.70512335  1
  Cu  Cu118  1  0.18682363  0.60114813  0.14306188  1
  H  H119  1  0.07598424  0.63894037  0.12567695  1
  O  O120  1  0.15981089  0.55661450  0.23293370  1
  H  H121  1  0.10744233  0.56119852  0.08911812  1
  C  C122  1  0.15369549  0.54384881  0.34648423  1
  H  H123  1  0.20566687  0.72235085  0.30889852  1
  O  O124  1  0.14460332  0.67189286  0.38182118  1
  Cu  Cu125  1  0.18629270  0.63099769  0.40468301  1
  C  C126  1  0.19932435  0.74916413  0.38654385  1
  C  C127  1  0.14071284  0.70370117  0.46833392  1
  O  O128  1  0.15545208  0.57556520  0.43506499  1
  O  O129  1  0.05755707  0.72335806  0.05109806  1
  O  O130  1  0.23507523  0.60201459  0.42795770  1
  C  C131  1  0.08721953  0.63052940  0.02624892  1
  C  C132  1  0.21595372  0.68716738  0.05466359  1
  O  O133  1  0.20983378  0.63906326  0.02884726  1
  O  O134  1  0.23602044  0.57457171  0.23254613  1
  C  C135  1  0.10499953  0.58639987  0.01085856  1
  C  C136  1  0.24198465  0.56835546  0.34840068  1
  O  O137  1  0.19571166  0.71861039  0.00640177  1
  C  C138  1  0.16981845  0.74173897  0.48395707  1
  H  H139  1  0.23695777  0.96620238  0.05969367  1
  Cu  Cu140  1  0.07058200  0.78135146  0.12001395  1
  C  C141  1  0.00355560  0.99311846  0.27392242  1
  H  H142  1  0.17664436  0.78805121  0.01409888  1
  O  O143  1  0.11583735  0.81235468  0.08077181  1
  C  C144  1  0.16415139  0.98547633  0.29095624  1
  O  O145  1  0.05474746  0.81426320  0.27756998  1
  C  C146  1  0.21090127  0.98271869  0.10373614  1
  H  H147  1  0.10618428  0.89059844  0.28973351  1
  C  C148  1  0.22274894  0.93197741  0.31041580  1
  H  H149  1  0.14657429  0.84889859  0.24851195  1
  C  C150  1  0.19963025  0.96886660  0.23145396  1
  O  O151  1  0.06287712  0.94631635  0.19945520  1
  O  O152  1  0.15999163  0.89534526  0.39414435  1
  H  H153  1  0.15817073  0.97424372  0.39356092  1
  C  C154  1  0.20331331  0.90086127  0.39271814  1
  C  C155  1  0.14003201  0.88531704  0.28599333  1
  O  O156  1  0.04090851  0.78197763  0.46704912  1
  H  H157  1  0.24076797  0.77706748  0.10736693  1
  H  H158  1  0.23857917  0.80465748  0.32630029  1
  C  C159  1  0.03116162  0.79678862  0.35670410  1
  C  C160  1  0.03998361  0.96398969  0.27246314  1
  H  H161  1  0.05856478  0.95389795  0.36515412  1
  C  C162  1  0.22986949  0.87301613  0.46088461  1
  C  C163  1  0.21785365  0.79311170  0.40044045  1
  H  H164  1  0.15188070  0.91102902  0.21083489  1
  O  O165  1  0.09586110  0.88214500  0.00789987  1
  C  C166  1  0.12274684  0.85247233  0.02097363  1
  H  H167  1  0.07963838  0.66179549  0.70630990  1
  C  C168  1  0.08861697  0.64104800  0.79405017  1
  C  C169  1  0.10975180  0.59807504  0.78170850  1
  H  H170  1  0.12082194  0.58348491  0.68722449  1
  H  H171  1  0.18987426  0.56798536  0.84525763  1
  C  C172  1  0.18079148  0.53145046  0.88581266  1
  C  C173  1  0.14123006  0.52242637  0.91129434  1
  C  C174  1  0.11848329  0.56897742  0.89227619  1
  C  C175  1  0.06411011  0.70806700  0.93501090  1
  C  C176  1  0.08176772  0.65950389  0.91853417  1
  O  O177  1  0.00565236  0.67687896  0.70893140  1
  H  H178  1  0.05900892  0.51565493  0.79128023  1
  O  O179  1  0.05934801  0.73604772  0.84528431  1
  C  C180  1  0.05650652  0.50533625  0.89662188  1
  Cu  Cu181  1  0.01171819  0.73861018  0.77372296  1
  O  O182  1  0.11205064  0.70141111  0.54519051  1
  O  O183  1  0.01866979  0.68142916  0.50430499  1
  Cu  Cu184  1  0.06229637  0.71774202  0.51062500  1
  H  H185  1  0.05620970  0.53943938  0.94353212  1
  O  O186  1  0.00566627  0.80130595  0.77564881  1
  C  C187  1  0.21144823  0.82584200  0.50703673  1
  C  C188  1  0.22487817  0.83024873  0.92119532  1
  C  C189  1  0.23368791  0.87827584  0.86856087  1
  H  H190  1  0.14675307  0.93892262  0.91372153  1
  C  C191  1  0.20508271  0.91662221  0.86560842  1
  H  H192  1  0.18698154  0.84107160  0.69205174  1
  O  O193  1  0.04600850  0.98096754  0.83790518  1
  H  H194  1  0.14436572  0.76343709  0.66731802  1
  O  O195  1  0.02352025  0.84476701  0.93847351  1
  H  H196  1  0.24774110  0.80004009  0.91867963  1
  H  H197  1  0.14424357  0.96850571  0.66879250  1
  Cu  Cu198  1  0.06176976  0.88488728  0.86463443  1
  C  C199  1  0.18789797  0.82543571  0.98073115  1
  C  C200  1  0.16446150  0.77215241  0.59033989  1
  C  C201  1  0.18753290  0.81387092  0.61092543  1
  C  C202  1  0.16219818  0.86465925  0.97347206  1
  C  C203  1  0.16878617  0.91036011  0.91797296  1
  C  C204  1  0.07542200  0.97427567  0.77855574  1
  O  O205  1  0.09091957  0.92989403  0.77846310  1
  H  H206  1  0.21205363  0.94963643  0.81412506  1
  C  C207  1  0.40243711  0.04565427  0.15963311  1
  H  H208  1  0.40134967  0.08517463  0.14419027  1
  C  C209  1  0.29458594  0.19013663  0.23656526  1
  O  O210  1  0.35962411  0.20590156  0.08577503  1
  H  H211  1  0.32212041  0.19722943  0.28587847  1
  C  C212  1  0.29252864  0.18542050  0.10081830  1
  C  C213  1  0.39350929  0.02311412  0.27398282  1
  C  C214  1  0.38536778  0.05613455  0.37781886  1
  H  H215  1  0.39129686  0.19226834  0.38194320  1
  H  H216  1  0.25988379  0.18934511  0.40824396  1
  C  C217  1  0.41006282  0.01452453  0.05048768  1
  O  O218  1  0.38193792  0.09977647  0.39636781  1
  C  C219  1  0.36897115  0.19967001  0.45270995  1
  H  H220  1  0.38195555  0.02936775  0.45841679  1
  C  C221  1  0.25899306  0.18239763  0.30032743  1
  C  C222  1  0.35229939  0.24597012  0.45546048  1
  H  H223  1  0.46258916  0.01956551  0.31518376  1
  C  C224  1  0.25833304  0.17254548  0.03189344  1
  C  C225  1  0.32795652  0.19669255  0.02732894  1
  H  H226  1  0.25609922  0.09280641  0.32031063  1
  H  H227  1  0.32553214  0.00656251  0.08318722  1
  Cu  Cu228  1  0.41327679  0.20689437  0.00448786  1
  H  H229  1  0.25684582  0.48863290  0.19531821  1
  C  C230  1  0.45181165  0.49276070  0.46218534  1
  H  H231  1  0.25962771  0.40518455  0.26473493  1
  O  O232  1  0.45643888  0.44700468  0.42647074  1
  H  H233  1  0.38993450  0.35264431  0.09102384  1
  H  H234  1  0.35498142  0.43225653  0.06757613  1
  C  C235  1  0.25787810  0.43393344  0.34116932  1
  H  H236  1  0.33168775  0.41008741  0.33138897  1
  H  H237  1  0.35627566  0.27535851  0.37823813  1
  H  H238  1  0.37009090  0.41401043  0.45183789  1
  C  C239  1  0.33847898  0.40603478  0.43563542  1
  O  O240  1  0.33456908  0.35703984  0.48145579  1
  C  C241  1  0.25626288  0.48157692  0.29743381  1
  C  C242  1  0.26049356  0.42139265  0.47502429  1
  H  H243  1  0.32024730  0.43241076  0.48573087  1
  C  C244  1  0.32683495  0.17115328  0.64147806  1
  O  O245  1  0.35903729  0.07959184  0.60004555  1
  H  H246  1  0.31822034  0.14133558  0.70448649  1
  Cu  Cu247  1  0.37600988  0.20585456  0.80283083  1
  H  H248  1  0.41083282  0.06068012  0.73803299  1
  O  O249  1  0.41000905  0.15334647  0.78409788  1
  C  C250  1  0.41327938  0.06995210  0.84422472  1
  C  C251  1  0.31546115  0.21941005  0.65398188  1
  H  H252  1  0.29525568  0.22940848  0.73570836  1
  O  O253  1  0.28511689  0.08132596  0.85074197  1
  O  O254  1  0.32769327  0.18914991  0.90910278  1
  C  C255  1  0.41469286  0.12382198  0.87024963  1
  C  C256  1  0.27233223  0.07250593  0.75047386  1
  C  C257  1  0.41269514  0.03749970  0.93653572  1
  H  H258  1  0.25967797  0.17188101  0.92823205  1
  C  C259  1  0.35419539  0.16271836  0.53888189  1
  H  H260  1  0.27233381  0.09120639  0.53519970  1
  C  C261  1  0.36514144  0.11201004  0.52574898  1
  H  H262  1  0.25660113  0.22981331  0.59522553  1
  C  C263  1  0.25360209  0.09078516  0.61848632  1
  O  O264  1  0.41974363  0.13898447  0.98446059  1
  C  C265  1  0.32437253  0.25357325  0.55599322  1
  C  C266  1  0.48675292  0.46198448  0.79609098  1
  C  C267  1  0.29995875  0.33979127  0.50653502  1
  C  C268  1  0.26426938  0.36723329  0.50896879  1
  C  C269  1  0.25783266  0.26912602  0.57729123  1
  C  C270  1  0.40200174  0.48983410  0.83802488  1
  C  C271  1  0.34346152  0.42735780  0.86527088  1
  C  C272  1  0.31806511  0.47346414  0.88139129  1
  C  C273  1  0.34775527  0.39776191  0.75675226  1
  H  H274  1  0.36838424  0.33098250  0.68144790  1
  H  H275  1  0.46308647  0.42053895  0.63779574  1
  C  C276  1  0.47147561  0.45844806  0.67023487  1
  C  C277  1  0.29307853  0.29124145  0.54619040  1
  H  H278  1  0.40835848  0.46875651  0.92972827  1
  H  H279  1  0.33785298  0.41068434  0.65957666  1
  H  H280  1  0.26886470  0.42848358  0.89514602  1
  O  O281  1  0.40223970  0.26385096  0.78774668  1
  H  H282  1  0.48871254  0.43021749  0.85203052  1
  C  C283  1  0.27825475  0.46640560  0.89392602  1
  C  C284  1  0.38120186  0.33639934  0.88681846  1
  H  H285  1  0.39180075  0.46590975  0.76117642  1
  C  C286  1  0.36518202  0.35256883  0.76720719  1
  C  C287  1  0.39921021  0.28841224  0.89027936  1
  C  C288  1  0.26002285  0.45852602  0.56555516  1
  H  H289  1  0.26188026  0.44908146  0.66883258  1
  O  O290  1  0.41466439  0.27415869  0.99395600  1
  C  C291  1  0.37607305  0.36381230  0.99816918  1
  C  C292  1  0.35888214  0.41028326  0.98336680  1
  C  C293  1  0.27792426  0.66280509  0.16512728  1
  C  C294  1  0.30408121  0.72171653  0.31693488  1
  C  C295  1  0.30413716  0.67446363  0.25853868  1
  O  O296  1  0.37348756  0.67154790  0.38611319  1
  H  H297  1  0.27668129  0.62670207  0.12578094  1
  H  H298  1  0.32099481  0.64463537  0.30530397  1
  H  H299  1  0.41644890  0.72290214  0.25654015  1
  C  C300  1  0.32631922  0.73416371  0.43481826  1
  C  C301  1  0.40521572  0.63799759  0.42971720  1
  C  C302  1  0.35955721  0.70451831  0.46352254  1
  H  H303  1  0.41493699  0.61239396  0.35060695  1
  O  O304  1  0.43863806  0.52478608  0.40247051  1
  C  C305  1  0.25003977  0.69938534  0.13231075  1
  H  H306  1  0.38937697  0.66853356  0.09832974  1
  O  O307  1  0.47964442  0.67477290  0.29571507  1
  H  H308  1  0.42963884  0.66071836  0.46761445  1
  C  C309  1  0.49147237  0.71226831  0.33316728  1
  C  C310  1  0.25306032  0.51885517  0.39070064  1
  H  H311  1  0.36892090  0.58417370  0.02171686  1
  C  C312  1  0.36504609  0.66235131  0.02623080  1
  C  C313  1  0.25776845  0.74971707  0.15672416  1
  H  H314  1  0.49346684  0.56982447  0.03532633  1
  C  C315  1  0.31001029  0.77293564  0.49527549  1
  C  C316  1  0.28875381  0.76053997  0.23814248  1
  C  C317  1  0.39852665  0.88784556  0.35869847  1
  O  O318  1  0.39842075  0.75528746  0.03962700  1
  H  H319  1  0.48191899  0.87686184  0.42003404  1
  H  H320  1  0.46234778  0.98946741  0.16471875  1
  C  C321  1  0.42553666  0.84433250  0.35613425  1
  H  H322  1  0.43514455  0.86908594  0.16611919  1
  C  C323  1  0.46541667  0.84435469  0.39042864  1
  C  C324  1  0.43050353  0.75703831  0.30017381  1
  C  C325  1  0.35922469  0.87965345  0.38466481  1
  H  H326  1  0.32643504  0.99204434  0.27883685  1
  C  C327  1  0.48723925  0.80214650  0.38571941  1
  O  O328  1  0.45585146  0.93906298  0.31705773  1
  C  C329  1  0.41059968  0.80096259  0.30199516  1
  C  C330  1  0.36327151  0.75178211  0.00432819  1
  H  H331  1  0.35452129  0.95488200  0.07882060  1
  C  C332  1  0.41706338  0.93304743  0.32673870  1
  C  C333  1  0.26353810  0.94033543  0.29255818  1
  C  C334  1  0.33276394  0.91883854  0.36211732  1
  H  H335  1  0.38122345  0.80047481  0.25623612  1
  C  C336  1  0.46921499  0.75865099  0.34572273  1
  H  H337  1  0.34871459  0.84390374  0.42453348  1
  C  C338  1  0.47019077  0.98559626  0.27009197  1
  H  H339  1  0.40782921  0.97465174  0.04878214  1
  H  H340  1  0.30038329  0.79899347  0.25476844  1
  C  C341  1  0.38930578  0.96883029  0.30145240  1
  H  H342  1  0.36384636  0.86867218  0.08753068  1
  H  H343  1  0.27319498  0.96630237  0.21880872  1
  H  H344  1  0.28418497  0.79492072  0.45725503  1
  C  C345  1  0.28840208  0.91381514  0.37327740  1
  C  C346  1  0.27128868  0.88106174  0.46045136  1
  C  C347  1  0.42633646  0.88334617  0.07280427  1
  C  C348  1  0.34774987  0.96192266  0.30836786  1
  C  C349  1  0.33281002  0.97498111  0.01881807  1
  C  C350  1  0.38717768  0.88573033  0.03045477  1
  C  C351  1  0.41339767  0.67132236  0.76044672  1
  H  H352  1  0.38766822  0.64723812  0.77610760  1
  C  C353  1  0.44585016  0.66694213  0.83914308  1
  C  C354  1  0.41110532  0.70512451  0.65611322  1
  H  H355  1  0.44651530  0.64033739  0.91583834  1
  C  C356  1  0.31250526  0.69585068  0.88968559  1
  H  H357  1  0.27872274  0.64376185  0.76584015  1
  C  C358  1  0.30043224  0.64969769  0.84810691  1
  C  C359  1  0.37362541  0.71973895  0.58641539  1
  H  H360  1  0.29489517  0.72581502  0.84918217  1
  C  C361  1  0.30849368  0.55711104  0.88193691  1
  C  C362  1  0.32134733  0.60970847  0.89644870  1
  C  C363  1  0.26846557  0.55207359  0.89082696  1
  O  O364  1  0.37491986  0.52971999  0.85143673  1
  C  C365  1  0.47690595  0.70059820  0.82324998  1
  C  C366  1  0.33743271  0.51906966  0.87165946  1
  C  C367  1  0.34565953  0.70097325  0.96586676  1
  C  C368  1  0.47238433  0.54790195  0.64740266  1
  H  H369  1  0.39549459  0.61706291  0.51453490  1
  H  H370  1  0.25573703  0.53479520  0.58814368  1
  C  C371  1  0.44461734  0.73492058  0.63196872  1
  H  H372  1  0.46885712  0.57735889  0.58064608  1
  C  C373  1  0.47507956  0.73388631  0.72184607  1
  C  C374  1  0.35375805  0.61643509  0.98053391  1
  H  H375  1  0.42991720  0.50358420  0.79834912  1
  C  C376  1  0.46521941  0.50095252  0.60296122  1
  C  C377  1  0.49278241  0.55310033  0.76192902  1
  C  C378  1  0.25176142  0.50497758  0.90177201  1
  H  H379  1  0.25172181  0.58442193  0.90603003  1
  C  C380  1  0.25476380  0.50568053  0.52132306  1
  C  C381  1  0.34874454  0.85309286  0.75583043  1
  C  C382  1  0.27533740  0.87814712  0.82238496  1
  H  H383  1  0.47215828  0.93978203  0.81653791  1
  O  O384  1  0.34172169  0.78719770  0.99468899  1
  C  C385  1  0.45706039  0.90049441  0.99503345  1
  C  C386  1  0.27779772  0.84073981  0.73326053  1
  H  H387  1  0.37955608  0.84419495  0.73178885  1
  C  C388  1  0.41168166  0.92005034  0.82940184  1
  C  C389  1  0.38013095  0.90060387  0.90374550  1
  C  C390  1  0.35827398  0.75740435  0.65800559  1
  C  C391  1  0.44918986  0.92274033  0.87669151  1
  C  C392  1  0.32771310  0.78719680  0.61362741  1
  H  H393  1  0.40343561  0.92884818  0.72978992  1
  C  C394  1  0.31677824  0.82732137  0.70396572  1
  H  H395  1  0.44545705  0.76320604  0.55508721  1
  H  H396  1  0.25364060  0.81786095  0.71235380  1
  O  O397  1  0.29649199  0.94612868  0.95427940  1
  C  C398  1  0.30376485  0.91005721  0.88465074  1
  C  C399  1  0.34031085  0.89000897  0.84357398  1
  H  H400  1  0.36968025  0.76532292  0.75288208  1
  H  H401  1  0.34834377  0.99434746  0.94061032  1
  H  H402  1  0.49929327  0.75964504  0.71667692  1
  H  H403  1  0.28976880  0.85824054  0.52290555  1
  O  O404  1  0.73523857  0.20082717  0.32311922  1
  C  C405  1  0.74940162  0.16702037  0.25450069  1
  Cu  Cu406  1  0.50928387  0.42295855  0.41029432  1
  Cu  Cu407  1  0.72379713  0.25982389  0.25038462  1
  C  C408  1  0.58355337  0.38609944  0.47096240  1
  H  H409  1  0.60697660  0.46860222  0.35257713  1
  C  C410  1  0.62230116  0.46158292  0.44406191  1
  C  C411  1  0.65420554  0.48162818  0.16137107  1
  H  H412  1  0.64745312  0.33941361  0.07809549  1
  C  C413  1  0.62082277  0.41131458  0.05333552  1
  O  O414  1  0.56234809  0.40135377  0.37494120  1
  C  C415  1  0.58785227  0.49123363  0.05157344  1
  C  C416  1  0.70688906  0.36040411  0.22441807  1
  C  C417  1  0.68278144  0.44894611  0.20637622  1
  H  H418  1  0.70612894  0.45877370  0.26875733  1
  O  O419  1  0.70499086  0.31687082  0.18616289  1
  C  C420  1  0.62237182  0.46133742  0.08840016  1
  C  C421  1  0.64900792  0.37750366  0.09838080  1
  C  C422  1  0.67998691  0.39843326  0.17040655  1
  O  O423  1  0.72853427  0.37292822  0.31050904  1
  C  C424  1  0.65193448  0.49246804  0.48629669  1
  H  H425  1  0.73700843  0.00659519  0.56791874  1
  H  H426  1  0.74057382  0.14291521  0.50356708  1
  H  H427  1  0.73571047  0.47296719  0.52721669  1
  C  C428  1  0.66366448  0.44081905  0.67385773  1
  H  H429  1  0.59471305  0.46964035  0.66607408  1
  H  H430  1  0.54401858  0.48525388  0.69221018  1
  C  C431  1  0.66903195  0.48693701  0.60954048  1
  H  H432  1  0.68046147  0.43337528  0.76193114  1
  O  O433  1  0.57616633  0.45059399  0.84310763  1
  C  C434  1  0.56454370  0.48484525  0.93933728  1
  H  H435  1  0.55554045  0.42554804  0.65881070  1
  C  C436  1  0.63402685  0.40916042  0.63293379  1
  C  C437  1  0.56676115  0.45794279  0.71513085  1
  H  H438  1  0.62465063  0.37603889  0.68755128  1
  C  C439  1  0.61572483  0.42069473  0.51615104  1
  O  O440  1  0.57649156  0.34926817  0.52296430  1
  H  H441  1  0.59700714  0.39666846  0.99566615  1
  C  C442  1  0.64227866  0.61187930  0.34761515  1
  C  C443  1  0.68678274  0.58847355  0.18370919  1
  C  C444  1  0.64914684  0.60437056  0.21687346  1
  O  O445  1  0.57585534  0.64049826  0.29481515  1
  H  H446  1  0.62711081  0.60637791  0.14521878  1
  C  C447  1  0.71714158  0.58639299  0.27713854  1
  Cu  Cu448  1  0.57121826  0.70487702  0.23696952  1
  O  O449  1  0.61377679  0.69218450  0.12587089  1
  H  H450  1  0.69552370  0.58419195  0.08117171  1
  C  C451  1  0.64781886  0.70709079  0.12964605  1
  C  C452  1  0.68785903  0.70712271  0.07095141  1
  H  H453  1  0.60480644  0.53554625  0.22774622  1
  C  C454  1  0.54830625  0.54882395  0.12795143  1
  C  C455  1  0.58382858  0.52787528  0.15109465  1
  C  C456  1  0.60237765  0.62795992  0.38457025  1
  C  C457  1  0.70921061  0.59185058  0.41027421  1
  O  O458  1  0.52941272  0.72012394  0.35647033  1
  C  C459  1  0.51916431  0.54563560  0.03884799  1
  C  C460  1  0.68051285  0.73350460  0.17356600  1
  H  H461  1  0.65629120  0.51918267  0.18969367  1
  C  C462  1  0.67135996  0.60797840  0.44504154  1
  O  O463  1  0.59484861  0.63569802  0.49400101  1
  H  H464  1  0.66569468  0.52107699  0.42938208  1
  H  H465  1  0.73525180  0.59098830  0.48035622  1
  C  C466  1  0.70536504  0.93210074  0.03180391  1
  C  C467  1  0.71981576  0.84189540  0.44869224  1
  H  H468  1  0.67590456  0.84551005  0.14994620  1
  H  H469  1  0.64379682  0.92651632  0.09663500  1
  C  C470  1  0.66881042  0.91177230  0.03840500  1
  H  H471  1  0.50256194  0.98444489  0.27109024  1
  C  C472  1  0.73400240  0.82365320  0.18229364  1
  H  H473  1  0.73790493  0.97849661  0.40130990  1
  O  O474  1  0.60192007  0.84852225  0.09322772  1
  Cu  Cu475  1  0.59882002  0.81658638  0.24604850  1
  H  H476  1  0.51862616  0.79991592  0.41128654  1
  O  O477  1  0.56515173  0.76764643  0.17616097  1
  Cu  Cu478  1  0.53292255  0.81909849  0.15284509  1
  C  C479  1  0.65295784  0.86892736  0.40372855  1
  H  H480  1  0.71393430  0.96385109  0.09449673  1
  O  O481  1  0.62291524  0.86988144  0.32413045  1
  H  H482  1  0.74392319  0.82432044  0.08099269  1
  H  H483  1  0.70006599  0.75705341  0.23259162  1
  C  C484  1  0.69764317  0.84028355  0.22334371  1
  C  C485  1  0.69051589  0.84923434  0.35455036  1
  O  O486  1  0.50811218  0.87683194  0.13729951  1
  C  C487  1  0.50003114  0.89675485  0.02577726  1
  C  C488  1  0.62709630  0.83389951  0.01267467  1
  Cu  Cu489  1  0.57219977  0.76275583  0.00324579  1
  C  C490  1  0.69463456  0.56256099  0.72948185  1
  O  O491  1  0.66145709  0.57554483  0.78260562  1
  C  C492  1  0.70598337  0.65330777  0.90934384  1
  C  C493  1  0.62883314  0.54250899  0.77540460  1
  C  C494  1  0.73026072  0.58806709  0.74938395  1
  C  C495  1  0.51218161  0.70112246  0.90565364  1
  C  C496  1  0.70181093  0.51967329  0.65559359  1
  H  H497  1  0.61739441  0.54457439  0.67192143  1
  H  H498  1  0.66476835  0.61083994  0.54995280  1
  H  H499  1  0.60366162  0.55284099  0.84144621  1
  H  H500  1  0.50483709  0.58822233  0.78979289  1
  H  H501  1  0.63610735  0.50479078  0.80344056  1
  H  H502  1  0.67790680  0.63539031  0.92717671  1
  C  C503  1  0.73210761  0.63812369  0.80755115  1
  C  C504  1  0.73633414  0.50575310  0.59276167  1
  C  C505  1  0.52972114  0.51079316  0.94101355  1
  O  O506  1  0.51462487  0.67258404  0.99026643  1
  O  O507  1  0.53701334  0.73857719  0.89413576  1
  H  H508  1  0.74368368  0.71212388  0.94916641  1
  C  C509  1  0.50169540  0.50837405  0.82880219  1
  C  C510  1  0.71641499  0.69330022  0.97413202  1
  H  H511  1  0.70561362  0.96038044  0.52529042  1
  C  C512  1  0.68742681  0.84573944  0.89338761  1
  C  C513  1  0.73614673  0.97115432  0.50598958  1
  C  C514  1  0.72338816  0.86866314  0.87699536  1
  O  O515  1  0.62173678  0.79391524  0.96003210  1
  H  H516  1  0.68039863  0.81066121  0.84628096  1
  C  C517  1  0.73432592  0.90930038  0.95358502  1
  C  C518  1  0.66083203  0.86497273  0.98239379  1
  H  H519  1  0.74434684  0.85447221  0.80877242  1
  H  H520  1  0.71411820  0.85167032  0.54785815  1
  O  O521  1  0.52538300  0.91089489  0.95779453  1
  O  O522  1  0.65016076  0.88249121  0.51342484  1
  H  H523  1  0.94002524  0.04706965  0.24181724  1
  C  C524  1  0.79609501  0.04264925  0.29171175  1
  H  H525  1  0.95625348  0.19134896  0.13675139  1
  O  O526  1  0.88689142  0.20044266  0.16770547  1
  C  C527  1  0.78313769  0.08622643  0.23827792  1
  C  C528  1  0.95146264  0.03278364  0.15017927  1
  H  H529  1  0.78626275  0.09263859  0.13396370  1
  H  H530  1  0.97019384  0.15585240  0.41172634  1
  C  C531  1  0.98539829  0.01719830  0.39375616  1
  C  C532  1  0.99440250  0.06483270  0.44005643  1
  C  C533  1  0.79339796  0.04086908  0.42627444  1
  Cu  Cu534  1  0.84571867  0.20359933  0.04955509  1
  Cu  Cu535  1  0.77342722  0.23226217  0.09431278  1
  C  C536  1  0.76199352  0.12062692  0.31177542  1
  C  C537  1  0.96411598  0.22540009  0.19258999  1
  O  O538  1  0.75326738  0.17650082  0.13634025  1
  C  C539  1  0.75720718  0.11627687  0.44400111  1
  H  H540  1  0.81474363  0.01891009  0.23698457  1
  C  C541  1  0.89401542  0.23176967  0.25935082  1
  C  C542  1  0.98407900  0.00076698  0.15938064  1
  O  O543  1  0.84186819  0.13091490  0.03727247  1
  C  C544  1  0.89960309  0.07501348  0.03840807  1
  C  C545  1  0.87108383  0.10169605  0.03669020  1
  C  C546  1  0.93399566  0.04459764  0.03300629  1
  O  O547  1  0.87006713  0.24414649  0.33674653  1
  H  H548  1  0.96034956  0.24261405  0.49657382  1
  C  C549  1  0.81789783  0.00045232  0.49164292  1
  C  C550  1  0.85530912  0.01777541  0.49700606  1
  H  H551  1  0.86567505  0.05346745  0.45405117  1
  C  C552  1  0.93494189  0.25120734  0.26233030  1
  C  C553  1  0.87306119  0.38272630  0.29790794  1
  H  H554  1  0.89314343  0.32124321  0.18497887  1
  H  H555  1  0.77186923  0.36492359  0.12602287  1
  C  C556  1  0.80779245  0.48060533  0.44828632  1
  H  H557  1  0.78057475  0.43755680  0.28002764  1
  H  H558  1  0.90146301  0.38646795  0.34891800  1
  C  C559  1  0.77223105  0.47911681  0.06245043  1
  C  C560  1  0.88084688  0.46594591  0.06537838  1
  H  H561  1  0.89795075  0.44175932  0.12739326  1
  H  H562  1  0.91717029  0.30949233  0.38078807  1
  O  O563  1  0.85393807  0.27435238  0.03290172  1
  H  H564  1  0.78127107  0.46440213  0.41200869  1
  H  H565  1  0.80258637  0.46712233  0.08881314  1
  O  O566  1  0.79103801  0.28938042  0.02801069  1
  C  C567  1  0.84427280  0.46184173  0.40390327  1
  C  C568  1  0.84233242  0.41901048  0.31780811  1
  C  C569  1  0.94742519  0.47692167  0.49683956  1
  C  C570  1  0.82611943  0.30193587  0.06180124  1
  C  C571  1  0.88106501  0.48174412  0.44560570  1
  C  C572  1  0.86900246  0.34548499  0.21119037  1
  H  H573  1  0.98694587  0.34644872  0.39541822  1
  C  C574  1  0.83194359  0.34202273  0.14783315  1
  C  C575  1  0.98051067  0.31447347  0.33868578  1
  C  C576  1  0.94264679  0.29273043  0.33643193  1
  C  C577  1  0.80396414  0.41134504  0.26167077  1
  H  H578  1  0.97313112  0.45270589  0.49040521  1
  O  O579  1  0.91455739  0.46066634  0.41318455  1
  C  C580  1  0.79973395  0.37189020  0.17834009  1
  H  H581  1  0.75520908  0.44746909  0.03451289  1
  C  C582  1  0.97300394  0.13370695  0.73803320  1
  C  C583  1  0.96835232  0.18022239  0.78208519  1
  C  C584  1  0.96341447  0.21741275  0.69107865  1
  H  H585  1  0.92122523  0.07455921  0.66174214  1
  H  H586  1  0.96239341  0.18701575  0.88305535  1
  H  H587  1  0.97309855  0.10109227  0.80520667  1
  H  H588  1  0.94175236  0.02684874  0.94165794  1
  C  C589  1  0.97671929  0.12692922  0.60299271  1
  C  C590  1  0.93842572  0.05160486  0.59647969  1
  C  C591  1  0.96693098  0.21046086  0.55951026  1
  H  H592  1  0.77189768  0.07567100  0.60559624  1
  C  C593  1  0.97050632  0.07606165  0.54441137  1
  C  C594  1  0.97276253  0.16397972  0.51363446  1
  H  H595  1  0.75574924  0.00196242  0.92057475  1
  C  C596  1  0.77360970  0.07667412  0.50374758  1
  C  C597  1  0.92644922  0.00838642  0.53587939  1
  O  O598  1  0.91403645  0.38957768  0.95390111  1
  O  O599  1  0.89415300  0.41158356  0.75623576  1
  H  H600  1  0.99815362  0.32724121  0.55342445  1
  C  C601  1  0.86051909  0.49402559  0.84405821  1
  C  C602  1  0.89609551  0.41903452  0.88123915  1
  O  O603  1  0.94109972  0.29831241  0.66243546  1
  C  C604  1  0.99704427  0.41306732  0.67423836  1
  Cu  Cu605  1  0.92874920  0.32859592  0.91503549  1
  O  O606  1  0.96398568  0.39230579  0.63367161  1
  Cu  Cu607  1  0.91970888  0.35639338  0.70348678  1
  C  C608  1  0.87863139  0.46059131  0.92956288  1
  C  C609  1  0.95202803  0.26703775  0.73893721  1
  H  H610  1  0.85984072  0.48763560  0.73907284  1
  O  O611  1  0.94651753  0.27245582  0.85795849  1
  H  H612  1  0.93573246  0.47467484  0.59191771  1
  H  H613  1  0.88266120  0.69640207  0.20671185  1
  C  C614  1  0.81844802  0.70721130  0.20798031  1
  H  H615  1  0.91514334  0.56526326  0.34169446  1
  C  C616  1  0.80737498  0.65452020  0.18339095  1
  C  C617  1  0.77065614  0.64218771  0.23442107  1
  C  C618  1  0.82783888  0.61889295  0.10917901  1
  C  C619  1  0.81220898  0.57216547  0.09996463  1
  C  C620  1  0.85832718  0.72166216  0.20917404  1
  C  C621  1  0.92757008  0.58020383  0.43041994  1
  C  C622  1  0.77498836  0.55626891  0.15207845  1
  H  H623  1  0.85612079  0.62870050  0.06972752  1
  H  H624  1  0.97290136  0.62693413  0.35829962  1
  C  C625  1  0.95888241  0.61260122  0.44392049  1
  C  C626  1  0.78924327  0.74252759  0.23855303  1
  H  H627  1  0.75833761  0.73317510  0.23967972  1
  H  H628  1  0.90425409  0.73790313  0.42169719  1
  H  H629  1  0.85272048  0.50545265  0.22578479  1
  C  C630  1  0.83926959  0.53532415  0.03935267  1
  C  C631  1  0.85836924  0.50245545  0.11995081  1
  C  C632  1  0.75884579  0.59428505  0.22332627  1
  H  H633  1  0.75358173  0.66911009  0.28991614  1
  H  H634  1  0.95874528  0.51446651  0.47031287  1
  H  H635  1  0.97488196  0.74832243  0.48815595  1
  O  O636  1  0.75596288  0.51345451  0.15067914  1
  C  C637  1  0.80158758  0.78944700  0.26855911  1
  C  C638  1  0.92517079  0.75517900  0.36621413  1
  C  C639  1  0.96392409  0.76359051  0.40016730  1
  H  H640  1  0.82944424  0.77893299  0.04716417  1
  H  H641  1  0.79568042  0.87702996  0.35226179  1
  C  C642  1  0.86719045  0.77006893  0.24052611  1
  C  C643  1  0.95416450  0.98997191  0.44475189  1
  C  C644  1  0.84090362  0.80945836  0.26964214  1
  C  C645  1  0.76191677  0.81537629  0.27936377  1
  C  C646  1  0.75533036  0.82139384  0.41473583  1
  H  H647  1  0.85915990  0.83143006  0.05753002  1
  H  H648  1  0.91229958  0.93883343  0.02921123  1
  H  H649  1  0.97548751  0.90048914  0.01837062  1
  H  H650  1  0.92974402  0.82375902  0.09341139  1
  O  O651  1  0.84956228  0.85797821  0.28378308  1
  H  H652  1  0.82510895  0.92863050  0.29033863  1
  H  H653  1  0.99906778  0.98050492  0.07828397  1
  C  C654  1  0.98973271  0.79058595  0.32621163  1
  C  C655  1  0.97578382  0.81173834  0.21098165  1
  C  C656  1  0.91105807  0.77966107  0.25853055  1
  C  C657  1  0.81714453  0.89038231  0.27407042  1
  H  H658  1  0.94848026  0.95461717  0.39952675  1
  H  H659  1  0.99528106  0.83759982  0.15210810  1
  C  C660  1  0.93708117  0.80625203  0.18109324  1
  H  H661  1  0.80261597  0.89124138  0.18422484  1
  H  H662  1  0.77538356  0.81051331  0.49025308  1
  C  C663  1  0.83444558  0.81475536  0.00115498  1
  H  H664  1  0.79412010  0.59148530  0.72243991  1
  C  C665  1  0.94971363  0.60795013  0.68120489  1
  C  C666  1  0.91735776  0.57868374  0.67451393  1
  H  H667  1  0.96163452  0.61699874  0.77613244  1
  H  H668  1  0.90001548  0.56274953  0.75703262  1
  O  O669  1  0.77667514  0.70683446  0.76974029  1
  H  H670  1  0.82900897  0.56363695  0.84743037  1
  O  O671  1  0.83500160  0.69265895  0.66603667  1
  C  C672  1  0.81222178  0.72381239  0.69411170  1
  H  H673  1  0.78282950  0.64468874  0.68878909  1
  C  C674  1  0.76601308  0.57216265  0.69913672  1
  C  C675  1  0.76348793  0.66562237  0.76007781  1
  C  C676  1  0.77105459  0.53325364  0.61103961  1
  H  H677  1  0.84439357  0.57989824  0.61365102  1
  C  C678  1  0.84246454  0.53260568  0.90442607  1
  C  C679  1  0.96941546  0.62640844  0.57034453  1
  C  C680  1  0.80804569  0.51936788  0.54045379  1
  C  C681  1  0.84196157  0.54895481  0.55715672  1
  C  C682  1  0.90954768  0.56284225  0.54675051  1
  C  C683  1  0.87701839  0.52604523  0.51481059  1
  H  H684  1  0.77282496  0.50151875  0.97108123  1
  C  C685  1  0.99832516  0.66400727  0.59630034  1
  C  C686  1  0.77608597  0.92504315  0.94770048  1
  C  C687  1  0.99662312  0.83103757  0.86643016  1
  C  C688  1  0.95098288  0.88535262  0.96707847  1
  C  C689  1  0.91361768  0.90612956  0.96551973  1
  O  O690  1  0.80098811  0.84197315  0.98188608  1
  C  C691  1  0.83653394  0.92633722  0.56636139  1
  H  H692  1  0.88096572  0.98196109  0.87206400  1
  O  O693  1  0.76653441  0.93926220  0.54685834  1
  C  C694  1  0.89090960  0.84986164  0.81443830  1
  C  C695  1  0.80301501  0.95470097  0.53674568  1
  C  C696  1  0.82911681  0.87314750  0.60484306  1
  H  H697  1  0.89911608  0.91467255  0.61481166  1
  C  C698  1  0.88488769  0.98793394  0.54404006  1
  C  C699  1  0.95709244  0.85124407  0.87042553  1
  C  C700  1  0.85136802  0.78928523  0.59488570  1
  H  H701  1  0.77330887  0.88651845  0.70837179  1
  H  H702  1  0.86695234  0.82991984  0.76864857  1
  C  C703  1  0.80591817  0.89073109  0.95458362  1
  C  C704  1  0.92798866  0.83597557  0.77927609  1
  C  C705  1  0.88011428  0.88812534  0.90177233  1
  C  C706  1  0.78962981  0.81091234  0.70267592  1
  C  C707  1  0.87542912  0.93973507  0.57898146  1
  C  C708  1  0.84121792  0.91258422  0.91814987  1
  H  H709  1  0.93541262  0.81125758  0.70039046  1
  H  H710  1  0.76504671  0.79653023  0.75414696  1
  C  C711  1  0.85802836  0.83731081  0.56798938  1
  C  C712  1  0.79445788  0.86001777  0.67288674  1
  H  H713  1  0.84851671  0.80306532  0.90783986  1
  C  C714  1  0.81750753  0.77564822  0.66091750  1
  C  C715  1  0.78019659  0.97642923  0.92112785  1
  C  C716  1  0.85181329  0.96420651  0.89000657  1
  C  C717  1  0.81759370  0.98859390  0.89088642  1
  H  H718  1  0.88215175  0.84621267  0.50359155  1
  H  H719  1  0.87312355  0.76260714  0.57113373  1
