# generated using pymatgen
data_Zn3H4(C5O4)4
_symmetry_space_group_name_H-M   'P 1'
_cell_length_a   32.18835331
_cell_length_b   24.47635697
_cell_length_c   18.07005935
_cell_angle_alpha   90.00000000
_cell_angle_beta   90.00000000
_cell_angle_gamma   90.00000000
_symmetry_Int_Tables_number   1
_chemical_formula_structural   Zn3H4(C5O4)4
_chemical_formula_sum   'Zn48 H64 C320 O256'
_cell_volume   14236.56177828
_cell_formula_units_Z   16
loop_
 _symmetry_equiv_pos_site_id
 _symmetry_equiv_pos_as_xyz
  1  'x, y, z'
loop_
 _atom_site_type_symbol
 _atom_site_label
 _atom_site_symmetry_multiplicity
 _atom_site_fract_x
 _atom_site_fract_y
 _atom_site_fract_z
 _atom_site_occupancy
  C  C0  1  0.08126162  0.14411623  0.14856260  1
  O  O1  1  0.16878828  0.08853518  0.19278656  1
  C  C2  1  0.10874745  0.15604075  0.20674727  1
  C  C3  1  0.15006505  0.12908305  0.23081655  1
  O  O4  1  0.16740421  0.14393885  0.28536756  1
  H  H5  1  0.12618473  0.03111468  0.37808715  1
  C  C6  1  0.04655957  0.17768136  0.13948151  1
  C  C7  1  0.07698482  0.09090892  0.37031180  1
  C  C8  1  0.11269896  0.06891877  0.40278973  1
  C  C9  1  0.05894375  0.13625785  0.40416926  1
  C  C10  1  0.09962308  0.19971643  0.25241598  1
  C  C11  1  0.03678183  0.22013580  0.18784980  1
  C  C12  1  0.12652088  0.08407189  0.47354717  1
  C  C13  1  0.08619070  0.09551512  0.09596567  1
  H  H14  1  0.11827197  0.21217146  0.30022764  1
  O  O15  1  0.11708735  0.06034866  0.10460493  1
  O  O16  1  0.06162074  0.08926439  0.04743667  1
  C  C17  1  0.06113604  0.06288544  0.30069230  1
  O  O18  1  0.03004407  0.07715985  0.26594179  1
  Zn  Zn19  1  0.18177956  0.09350064  0.07146684  1
  O  O20  1  0.08364298  0.02438506  0.27845805  1
  C  C21  1  0.01862461  0.17252820  0.39169497  1
  C  C22  1  0.06403845  0.23307589  0.24626105  1
  Zn  Zn23  1  0.13813688  0.01161909  0.20547647  1
  H  H24  1  0.02326906  0.16700721  0.09858137  1
  C  C25  1  0.07507078  0.15375963  0.47153008  1
  O  O26  1  0.16040871  0.18323829  0.04301179  1
  O  O27  1  0.16946335  0.00636221  0.46015564  1
  O  O28  1  0.01266656  0.21142250  0.43068732  1
  O  O29  1  0.23761215  0.12539543  0.02176944  1
  O  O30  1  0.18271684  0.22781260  0.49254152  1
  C  C31  1  0.16217588  0.04799124  0.49928985  1
  H  H32  1  0.05942758  0.19083322  0.49716872  1
  C  C33  1  0.27223077  0.10037455  0.00744780  1
  O  O34  1  0.44168509  0.01732851  0.25680351  1
  H  H35  1  0.37363310  0.03805203  0.32315323  1
  O  O36  1  0.49116276  0.06065737  0.06863840  1
  O  O37  1  0.32345264  0.23104279  0.14760751  1
  H  H38  1  0.27090134  0.21390994  0.32915610  1
  Zn  Zn39  1  0.29548288  0.21134831  0.04296599  1
  C  C40  1  0.31207771  0.04373778  0.40419042  1
  O  O41  1  0.27417827  0.04388064  0.43363155  1
  O  O42  1  0.31047850  0.18529549  0.24837579  1
  O  O43  1  0.32427138  0.08382195  0.37333251  1
  C  C44  1  0.30335481  0.22307651  0.20595269  1
  O  O45  1  0.30375227  0.12484608  0.03050562  1
  O  O46  1  0.26447138  0.03060419  0.22759118  1
  C  C47  1  0.25460256  0.24821346  0.30249666  1
  Zn  Zn48  1  0.46929125  0.01100165  0.15012368  1
  C  C49  1  0.29096198  0.00646182  0.20059904  1
  Zn  Zn50  1  0.19448566  0.14566127  0.83500716  1
  O  O51  1  0.14976623  0.14065951  0.61954337  1
  O  O52  1  0.15040363  0.15742192  0.93073711  1
  Zn  Zn53  1  0.21318801  0.12913492  0.60130635  1
  O  O54  1  0.23340914  0.14877576  0.73645107  1
  C  C55  1  0.20211892  0.04196991  0.92978100  1
  O  O56  1  0.14384664  0.19486224  0.79913871  1
  C  C57  1  0.12030745  0.16082687  0.57915554  1
  O  O58  1  0.10141030  0.19973978  0.60074122  1
  O  O59  1  0.18437142  0.06279804  0.87414630  1
  C  C60  1  0.15239517  0.19515814  0.97743158  1
  O  O61  1  0.23955031  0.19845771  0.54331326  1
  O  O62  1  0.18004992  0.03391164  0.98715653  1
  C  C63  1  0.24880974  0.02431362  0.92616273  1
  O  O64  1  0.24915214  0.20182068  0.85307901  1
  O  O65  1  0.18127725  0.05650033  0.55747626  1
  C  C66  1  0.10952054  0.13031423  0.50818663  1
  C  C67  1  0.14394392  0.24723161  0.80572393  1
  C  C68  1  0.21279015  0.23761995  0.53164285  1
  C  C69  1  0.31108488  0.15091852  0.83492727  1
  O  O70  1  0.43511510  0.02841162  0.76051747  1
  C  C71  1  0.32276678  0.03201430  0.95177800  1
  H  H72  1  0.34976317  0.05023420  0.97556471  1
  C  C73  1  0.38120276  0.10997186  0.84862553  1
  H  H74  1  0.35821956  0.17506588  0.91732005  1
  Zn  Zn75  1  0.46749585  0.01086510  0.87230118  1
  C  C76  1  0.28498056  0.19294819  0.87336589  1
  C  C77  1  0.35032133  0.14557160  0.87122465  1
  O  O78  1  0.41562281  0.15318683  0.95055831  1
  C  C79  1  0.28284216  0.05264694  0.96104404  1
  C  C80  1  0.30189225  0.11605909  0.77381684  1
  C  C81  1  0.33268593  0.07628725  0.75669538  1
  C  C82  1  0.26490479  0.11705603  0.72332228  1
  O  O83  1  0.29785099  0.22032461  0.92712425  1
  H  H84  1  0.32596203  0.04500331  0.71657009  1
  C  C85  1  0.37174309  0.07358096  0.78962776  1
  C  C86  1  0.39719443  0.02999387  0.75094440  1
  C  C87  1  0.41893466  0.11990205  0.90082102  1
  O  O88  1  0.45324686  0.09383606  0.89074285  1
  O  O89  1  0.26011830  0.08678610  0.66910145  1
  O  O90  1  0.12439707  0.41473196  0.10184019  1
  O  O91  1  0.12099886  0.33013839  0.13222828  1
  O  O92  1  0.04439218  0.32801043  0.28089629  1
  H  H93  1  0.19534657  0.35794354  0.17871107  1
  C  C94  1  0.13012699  0.36476806  0.08478808  1
  C  C95  1  0.21283842  0.32844273  0.21635293  1
  Zn  Zn96  1  0.08397449  0.47357147  0.05782675  1
  C  C97  1  0.19872914  0.31712305  0.28725336  1
  O  O98  1  0.09314337  0.28482577  0.33922598  1
  C  C99  1  0.06611379  0.28461567  0.29225574  1
  Zn  Zn100  1  0.17272793  0.30603064  0.39909946  1
  O  O101  1  0.14808011  0.43239960  0.28663012  1
  C  C102  1  0.16389982  0.46612676  0.24805698  1
  H  H103  1  0.14307744  0.27336813  0.07384369  1
  C  C104  1  0.22002426  0.27783277  0.32741062  1
  H  H105  1  0.14969703  0.48529451  0.39881116  1
  O  O106  1  0.23718325  0.46029086  0.41500523  1
  O  O107  1  0.13195113  0.32619892  0.49000669  1
  C  C108  1  0.23751928  0.49626386  0.37004458  1
  C  C109  1  0.13535240  0.34463172  0.00465267  1
  C  C110  1  0.14243521  0.28845484  0.01497923  1
  C  C111  1  0.24599576  0.29703262  0.18638300  1
  C  C112  1  0.24932857  0.31031747  0.10302130  1
  O  O113  1  0.00696951  0.39431893  0.39589201  1
  O  O114  1  0.17872155  0.49657602  0.20844693  1
  O  O115  1  0.02970984  0.43881594  0.00821579  1
  O  O116  1  0.25131816  0.27488194  0.05204627  1
  O  O117  1  0.25550877  0.35776851  0.08577612  1
  C  C118  1  0.26694910  0.25886229  0.22868240  1
  C  C119  1  0.33498710  0.47025472  0.04384341  1
  O  O120  1  0.26322114  0.49569320  0.31556752  1
  H  H121  1  0.36617060  0.45718556  0.06219891  1
  H  H122  1  0.13833891  0.35062128  0.81790709  1
  C  C123  1  0.13680755  0.33386356  0.87548498  1
  C  C124  1  0.12206870  0.42897068  0.90672361  1
  C  C125  1  0.13276134  0.36929965  0.93467375  1
  C  C126  1  0.14208506  0.27705069  0.88142988  1
  O  O127  1  0.12188632  0.43267043  0.84125352  1
  C  C128  1  0.21252610  0.38784979  0.60033768  1
  C  C129  1  0.19716357  0.34164086  0.56736816  1
  H  H130  1  0.19213511  0.42188197  0.61032524  1
  C  C131  1  0.14923850  0.34366574  0.54605270  1
  O  O132  1  0.12756464  0.36843868  0.59477547  1
  H  H133  1  0.03998444  0.32294491  0.86872252  1
  C  C134  1  0.02689422  0.30467569  0.81814372  1
  Zn  Zn135  1  0.08689047  0.32116280  0.65546578  1
  C  C136  1  0.04710224  0.30827879  0.74995796  1
  O  O137  1  0.14305234  0.27520899  0.75037464  1
  C  C138  1  0.22365169  0.29542306  0.55886232  1
  C  C139  1  0.03344829  0.28132385  0.68575950  1
  O  O140  1  0.12255911  0.46481967  0.95500567  1
  O  O141  1  0.23070714  0.47461388  0.86220841  1
  O  O142  1  0.23840942  0.48128085  0.67420203  1
  C  C143  1  0.00029243  0.46711511  0.98445253  1
  C  C144  1  0.14563698  0.25369057  0.95221620  1
  C  C145  1  0.25465010  0.39465069  0.62557436  1
  O  O146  1  0.34255715  0.29960403  0.62850224  1
  C  C147  1  0.28261414  0.46544219  0.95072234  1
  C  C148  1  0.32463670  0.34132370  0.64734487  1
  O  O149  1  0.27601893  0.41131968  0.83818525  1
  O  O150  1  0.36461521  0.40721855  0.87209847  1
  C  C151  1  0.26332017  0.30087813  0.58738926  1
  O  O152  1  0.36824520  0.36788353  0.97669555  1
  O  O153  1  0.30384135  0.45866852  0.66758562  1
  C  C154  1  0.32144599  0.44722609  0.97753919  1
  C  C155  1  0.35138771  0.40349003  0.93884048  1
  C  C156  1  0.27960487  0.34826292  0.62134073  1
  O  O157  1  0.34556238  0.37670217  0.68548008  1
  C  C158  1  0.26182958  0.44748713  0.88026841  1
  C  C159  1  0.26647948  0.44820557  0.65690697  1
  Zn  Zn160  1  0.33548494  0.43425020  0.77321474  1
  H  H161  1  0.28356710  0.26510430  0.58916491  1
  Zn  Zn162  1  0.16619133  0.60281796  0.33218231  1
  C  C163  1  0.20439735  0.54449273  0.37292668  1
  C  C164  1  0.05486795  0.61057067  0.07493934  1
  C  C165  1  0.02318264  0.58702742  0.12299345  1
  O  O166  1  0.20845970  0.57765548  0.05397885  1
  C  C167  1  0.13745215  0.61919056  0.43576729  1
  C  C168  1  0.12437967  0.56848146  0.40189779  1
  C  C169  1  0.03067405  0.53590561  0.16988781  1
  C  C170  1  0.15832969  0.52827907  0.38645174  1
  C  C171  1  0.08140909  0.54687918  0.41602315  1
  O  O172  1  0.06742733  0.52893586  0.35619638  1
  C  C173  1  0.09781282  0.59656385  0.05501905  1
  O  O174  1  0.06045303  0.56018810  0.47149557  1
  C  C175  1  0.21729735  0.59943137  0.40259196  1
  C  C176  1  0.18595293  0.63371282  0.43537965  1
  C  C177  1  0.03893061  0.65346089  0.03312066  1
  O  O178  1  0.11586712  0.55447314  0.07930601  1
  O  O179  1  0.03994780  0.70001183  0.30053138  1
  C  C180  1  0.05178137  0.65989631  0.29537927  1
  O  O181  1  0.17642560  0.71194841  0.09608268  1
  Zn  Zn182  1  0.18319910  0.65773860  0.00317816  1
  O  O183  1  0.00250612  0.52407862  0.21309723  1
  C  C184  1  0.14610283  0.74234120  0.08580543  1
  Zn  Zn185  1  0.02470981  0.63916040  0.48458805  1
  H  H186  1  0.17658555  0.73526613  0.22293114  1
  O  O187  1  0.18510373  0.71768285  0.33417945  1
  Zn  Zn188  1  0.00509258  0.52013588  0.33257082  1
  O  O189  1  0.11875374  0.62810599  0.01283863  1
  O  O190  1  0.13161847  0.74966111  0.02283087  1
  O  O191  1  0.06205159  0.50602339  0.16378095  1
  O  O192  1  0.08184316  0.67848002  0.49643779  1
  H  H193  1  0.19547755  0.66678919  0.47400437  1
  C  C194  1  0.24144747  0.56927724  0.08744592  1
  O  O195  1  0.24693908  0.59273115  0.14631435  1
  C  C196  1  0.31373231  0.51400792  0.07821486  1
  O  O197  1  0.27352278  0.62727159  0.46617286  1
  C  C198  1  0.34058515  0.53856228  0.14036960  1
  O  O199  1  0.32867292  0.58088426  0.17919665  1
  C  C200  1  0.26113898  0.61699236  0.40121131  1
  O  O201  1  0.28488972  0.61755124  0.34689632  1
  C  C202  1  0.27337825  0.52874721  0.05543574  1
  O  O203  1  0.37485764  0.52020710  0.15444259  1
  Zn  Zn204  1  0.27553700  0.56530763  0.24861501  1
  H  H205  1  0.10606918  0.60626893  0.79326704  1
  C  C206  1  0.10696245  0.64972394  0.81018834  1
  O  O207  1  0.17540780  0.57667520  0.81333851  1
  C  C208  1  0.17744559  0.61997984  0.85135586  1
  O  O209  1  0.20418213  0.62481653  0.89954098  1
  C  C210  1  0.07134902  0.68353872  0.79639100  1
  C  C211  1  0.14382042  0.66385559  0.84448923  1
  C  C212  1  0.03507666  0.65450990  0.76236285  1
  O  O213  1  0.03765048  0.60381037  0.75151151  1
  C  C214  1  0.14079269  0.72161218  0.86133202  1
  O  O215  1  0.20415423  0.72250287  0.93102012  1
  Zn  Zn216  1  0.23110931  0.53761016  0.76928912  1
  O  O217  1  0.13027074  0.64374723  0.56646321  1
  H  H218  1  0.22991780  0.52003292  0.96536412  1
  C  C219  1  0.11596009  0.64637438  0.50487583  1
  O  O220  1  0.00280962  0.67609088  0.74052331  1
  C  C221  1  0.07099924  0.74071064  0.80949490  1
  O  O222  1  0.01707233  0.74935611  0.96310990  1
  H  H223  1  0.06328395  0.67148398  0.99425493  1
  O  O224  1  0.25952217  0.60164948  0.70452268  1
  C  C225  1  0.26050151  0.50613629  0.98903349  1
  C  C226  1  0.34185988  0.61250283  0.78183926  1
  C  C227  1  0.32867476  0.71066050  0.75919188  1
  O  O228  1  0.49067070  0.67744972  0.59905225  1
  O  O229  1  0.46278000  0.73000244  0.81366914  1
  H  H230  1  0.40432419  0.59193204  0.81402942  1
  C  C231  1  0.38343653  0.62621459  0.79801947  1
  C  C232  1  0.27209399  0.64857697  0.72799188  1
  C  C233  1  0.47726948  0.72171637  0.61651983  1
  O  O234  1  0.35959859  0.51639460  0.79970256  1
  C  C235  1  0.39500862  0.68167762  0.79640479  1
  Zn  Zn236  1  0.31344644  0.67740044  0.51567770  1
  C  C237  1  0.44182294  0.68654129  0.81029349  1
  C  C238  1  0.37323380  0.69482769  0.54379096  1
  C  C239  1  0.43242586  0.74185555  0.59280316  1
  C  C240  1  0.34882582  0.74032566  0.55423563  1
  O  O241  1  0.29556480  0.54023611  0.80743847  1
  O  O242  1  0.25213059  0.68940366  0.71338728  1
  C  C243  1  0.36890894  0.72592031  0.77569239  1
  H  H244  1  0.43687803  0.65758229  0.54789557  1
  C  C245  1  0.33224573  0.55130494  0.79271377  1
  C  C246  1  0.41693286  0.69510443  0.55813864  1
  C  C247  1  0.40740102  0.53722210  0.55733593  1
  O  O248  1  0.39799846  0.56064613  0.61178719  1
  O  O249  1  0.45856749  0.64237626  0.82068360  1
  C  C250  1  0.31556303  0.65494906  0.75898521  1
  O  O251  1  0.41757000  0.51309663  0.50517615  1
  H  H252  1  0.30487171  0.74267690  0.75170199  1
  C  C253  1  0.13113942  0.77500871  0.28499722  1
  O  O254  1  0.15666810  0.76879636  0.41623284  1
  O  O255  1  0.13930048  0.92869451  0.14718837  1
  C  C256  1  0.16992615  0.90954668  0.11646823  1
  C  C257  1  0.09480822  0.80720924  0.29246696  1
  C  C258  1  0.12701680  0.77182418  0.15056242  1
  C  C259  1  0.07598907  0.82112921  0.22399368  1
  C  C260  1  0.09231991  0.80807502  0.15252806  1
  O  O261  1  0.08266336  0.83488145  0.42375185  1
  C  C262  1  0.06690453  0.83378602  0.09214669  1
  C  C263  1  0.07000167  0.83722729  0.35494430  1
  O  O264  1  0.03362976  0.85339052  0.10381510  1
  H  H265  1  0.04893633  0.84703919  0.22452262  1
  O  O266  1  0.03874830  0.86238418  0.34429291  1
  C  C267  1  0.19006014  0.92424188  0.29209714  1
  C  C268  1  0.20655777  0.88651292  0.15962563  1
  O  O269  1  0.20753918  0.92352639  0.35480192  1
  C  C270  1  0.21417451  0.89281444  0.23693178  1
  O  O271  1  0.08144228  0.83799690  0.02341780  1
  O  O272  1  0.17163310  0.90380684  0.04715048  1
  O  O273  1  0.15758517  0.95107448  0.28416839  1
  H  H274  1  0.23126471  0.85259042  0.05789849  1
  C  C275  1  0.23564434  0.85499882  0.11643055  1
  Zn  Zn276  1  0.23119583  0.98028780  0.42636244  1
  C  C277  1  0.15864605  0.75238751  0.35124956  1
  C  C278  1  0.14681055  0.75898109  0.21971556  1
  C  C279  1  0.00481152  0.76189519  0.49401217  1
  Zn  Zn280  1  0.09684483  0.76479442  0.48003943  1
  O  O281  1  0.34488880  0.78544577  0.25445285  1
  C  C282  1  0.25053708  0.86879931  0.26351736  1
  C  C283  1  0.31292768  0.81328016  0.27524465  1
  O  O284  1  0.47320185  0.88668320  0.41213557  1
  C  C285  1  0.48394764  0.81388515  0.08023997  1
  H  H286  1  0.26029117  0.87706339  0.32143863  1
  C  C287  1  0.37494291  0.99930298  0.35331651  1
  H  H288  1  0.37099055  0.87208639  0.47817947  1
  O  O289  1  0.41720990  0.87306010  0.14701869  1
  O  O290  1  0.28156024  0.78999959  0.02773256  1
  O  O291  1  0.32565134  0.76356554  0.10880570  1
  C  C292  1  0.33969062  0.99231428  0.40035431  1
  C  C293  1  0.40055199  0.91593258  0.39201869  1
  C  C294  1  0.27861991  0.83564851  0.22321874  1
  O  O295  1  0.43597384  0.76137321  0.16285337  1
  C  C296  1  0.36780577  0.90883481  0.44025607  1
  O  O297  1  0.46520580  0.93531882  0.26899185  1
  C  C298  1  0.43975948  0.97190025  0.28663369  1
  C  C299  1  0.33448620  0.94600676  0.44570415  1
  C  C300  1  0.40635317  0.96134723  0.34597254  1
  C  C301  1  0.43604594  0.87007195  0.40298066  1
  O  O302  1  0.42718100  0.82324125  0.40670456  1
  C  C303  1  0.26919789  0.82655037  0.14951681  1
  C  C304  1  0.29511478  0.79403318  0.09078081  1
  O  O305  1  0.30722682  0.82248746  0.34229675  1
  C  C306  1  0.46888568  0.86368296  0.05497490  1
  O  O307  1  0.43540794  0.94766980  0.09063006  1
  C  C308  1  0.43851978  0.89807009  0.10088546  1
  Zn  Zn309  1  0.37969368  0.80244310  0.15316392  1
  O  O310  1  0.31739816  0.98190275  0.17148125  1
  C  C311  1  0.47314920  0.77788029  0.15074406  1
  H  H312  1  0.10879704  0.80085424  0.86569316  1
  O  O313  1  0.04588823  0.83130385  0.83371334  1
  H  H314  1  0.23196228  0.95735505  0.85826443  1
  C  C315  1  0.03930016  0.78668247  0.80626793  1
  Zn  Zn316  1  0.02425420  0.83332678  0.95554750  1
  O  O317  1  0.17642130  0.80286898  0.90450636  1
  O  O318  1  0.00525231  0.78044946  0.77361092  1
  C  C319  1  0.10736809  0.75653374  0.84694298  1
  O  O320  1  0.00325866  0.90784873  0.61312102  1
  O  O321  1  0.03416109  0.76713746  0.53690382  1
  C  C322  1  0.17653778  0.75031496  0.89707555  1
  Zn  Zn323  1  0.14763229  0.83620315  0.99454972  1
  C  C324  1  0.47611095  0.88523397  0.98529932  1
  C  C325  1  0.25820212  0.97938205  0.88311469  1
  O  O326  1  0.45347060  0.85605256  0.66147697  1
  H  H327  1  0.34924811  0.82410334  0.58450689  1
  Zn  Zn328  1  0.47084470  0.79794078  0.74604192  1
  C  C329  1  0.30291696  0.92580974  0.50147517  1
  O  O330  1  0.26868300  0.94942275  0.51730884  1
  C  C331  1  0.42002590  0.84987550  0.62753192  1
  O  O332  1  0.26921608  0.87873901  0.82288359  1
  O  O333  1  0.31131719  0.88465398  0.53662249  1
  C  C334  1  0.37916267  0.78894632  0.77637502  1
  O  O335  1  0.40573410  0.99032854  0.92497195  1
  Zn  Zn336  1  0.37344936  0.90791025  0.73880663  1
  O  O337  1  0.37989245  0.99792577  0.70648927  1
  H  H338  1  0.45864139  0.92090943  0.96867950  1
  C  C339  1  0.37606949  0.96715579  0.89415633  1
  O  O340  1  0.41021657  0.81056955  0.80534339  1
  O  O341  1  0.38173285  0.92507441  0.85776186  1
  C  C342  1  0.49898106  0.88185969  0.85979940  1
  C  C343  1  0.40967574  0.78956389  0.60214721  1
  C  C344  1  0.36664956  0.78797894  0.58605229  1
  C  C345  1  0.33270084  0.98820602  0.90553246  1
  O  O346  1  0.39466771  0.88705630  0.61788436  1
  O  O347  1  0.35401947  0.82020633  0.74459484  1
  O  O348  1  0.30986500  0.92060590  0.74708801  1
  O  O349  1  0.47783100  0.92153509  0.84191697  1
  C  C350  1  0.29243574  0.91609989  0.81096211  1
  C  C351  1  0.29899748  0.96230609  0.87210523  1
  O  O352  1  0.49856722  0.75253344  0.65650944  1
  O  O353  1  0.62266960  0.12504881  0.20099069  1
  H  H354  1  0.55336849  0.09509732  0.11632203  1
  C  C355  1  0.62868341  0.14699003  0.14264197  1
  O  O356  1  0.64314902  0.19753862  0.14386684  1
  C  C357  1  0.57163898  0.09816216  0.06610002  1
  Zn  Zn358  1  0.70753672  0.21703598  0.12847803  1
  C  C359  1  0.61161268  0.12034532  0.06896091  1
  O  O360  1  0.74314051  0.21686856  0.23753145  1
  C  C361  1  0.55593471  0.07578866  0.00187604  1
  O  O362  1  0.67981499  0.00398639  0.16563699  1
  O  O363  1  0.70340405  0.14295887  0.05842817  1
  C  C364  1  0.51407398  0.04443616  0.01528477  1
  C  C365  1  0.63371643  0.12463015  0.00359982  1
  O  O366  1  0.53360456  0.00116828  0.18536880  1
  C  C367  1  0.67977412  0.14166589  0.00174878  1
  C  C368  1  0.76131184  0.17931258  0.27157307  1
  O  O369  1  0.75648363  0.17467998  0.33640065  1
  O  O370  1  0.80571821  0.18626735  0.03528377  1
  C  C371  1  0.84345224  0.00679751  0.11016190  1
  C  C372  1  0.88975073  0.16405540  0.25658129  1
  H  H373  1  0.79548082  0.09534495  0.33480736  1
  O  O374  1  0.84510700  0.01672920  0.04447534  1
  O  O375  1  0.90162993  0.08295703  0.38026615  1
  O  O376  1  0.98211041  0.24052020  0.11499576  1
  C  C377  1  0.78742127  0.13622413  0.22930440  1
  C  C378  1  0.85799641  0.21832954  0.35122325  1
  C  C379  1  0.79947450  0.09212459  0.27350882  1
  C  C380  1  0.90603827  0.11280436  0.21018308  1
  C  C381  1  0.82326778  0.04720809  0.16366036  1
  H  H382  1  0.89161240  0.19642686  0.15150870  1
  O  O383  1  0.87519426  0.13935874  0.45817498  1
  C  C384  1  0.88206492  0.20612521  0.20861391  1
  H  H385  1  0.84846216  0.22416158  0.40917129  1
  C  C386  1  0.79904686  0.14025265  0.15358568  1
  C  C387  1  0.79227226  0.18523520  0.09773888  1
  C  C388  1  0.88755002  0.12976979  0.39557523  1
  Zn  Zn389  1  0.96691678  0.08029691  0.32619070  1
  C  C390  1  0.81583090  0.04490699  0.23886525  1
  H  H391  1  0.82295991  0.09555653  0.05923982  1
  O  O392  1  0.91338847  0.11815278  0.14468107  1
  O  O393  1  0.91405410  0.06741894  0.24100310  1
  C  C394  1  0.81457567  0.09311253  0.11943963  1
  O  O395  1  0.77195514  0.22801412  0.11875828  1
  C  C396  1  0.87798496  0.17020282  0.33221066  1
  O  O397  1  0.99120608  0.15920909  0.34354307  1
  C  C398  1  0.99536682  0.24796635  0.17816723  1
  O  O399  1  0.80704803  0.01156581  0.36199421  1
  O  O400  1  0.96903069  0.00783118  0.39997114  1
  C  C401  1  0.82095711  0.00185301  0.30285412  1
  H  H402  1  0.63661977  0.10360776  0.88787988  1
  C  C403  1  0.61665695  0.10628454  0.93527535  1
  C  C404  1  0.57836496  0.07974217  0.93311812  1
  C  C405  1  0.56609542  0.05894536  0.85851498  1
  O  O406  1  0.69443300  0.15020794  0.94139336  1
  O  O407  1  0.58971857  0.07092164  0.80808703  1
  O  O408  1  0.53204801  0.03640080  0.84169244  1
  O  O409  1  0.74413616  0.00971484  0.95770372  1
  O  O410  1  0.50526727  0.00241690  0.98108766  1
  C  C411  1  0.99829658  0.24867916  0.69261466  1
  C  C412  1  0.97604648  0.24358454  0.75984815  1
  C  C413  1  0.77171557  0.00134335  0.91825962  1
  H  H414  1  0.99007372  0.22302332  0.64524806  1
  O  O415  1  0.91074634  0.20493762  0.78720612  1
  C  C416  1  0.94232990  0.20064928  0.74452676  1
  O  O417  1  0.94438685  0.16523680  0.69756445  1
  O  O418  1  0.69203059  0.30222411  0.07616155  1
  O  O419  1  0.73655062  0.46107684  0.11054038  1
  C  C420  1  0.70851901  0.33799674  0.03977519  1
  O  O421  1  0.68929866  0.37514931  0.00466359  1
  C  C422  1  0.97713312  0.41980660  0.42619838  1
  C  C423  1  0.75478309  0.34366201  0.02258660  1
  O  O424  1  0.90711485  0.26359053  0.48290866  1
  H  H425  1  0.83560609  0.43527328  0.05665376  1
  C  C426  1  0.86599855  0.25820689  0.22667094  1
  O  O427  1  0.84856390  0.49316780  0.23719251  1
  O  O428  1  0.96968283  0.46680667  0.39870589  1
  O  O429  1  0.92911406  0.31240529  0.39034480  1
  O  O430  1  0.81275762  0.30186115  0.39225240  1
  O  O431  1  0.76809845  0.41783549  0.19676570  1
  O  O432  1  0.85902182  0.34806498  0.17065605  1
  O  O433  1  0.80179206  0.33761118  0.28430331  1
  H  H434  1  0.98955178  0.43060859  0.13271601  1
  O  O435  1  0.90324550  0.42523965  0.26732064  1
  C  C436  1  0.93065031  0.42654484  0.21978463  1
  Zn  Zn437  1  0.81209683  0.30910034  0.03551870  1
  O  O438  1  0.91468077  0.37126552  0.00260772  1
  O  O439  1  0.95995196  0.39137050  0.22140868  1
  O  O440  1  0.97566611  0.27397621  0.22620870  1
  Zn  Zn441  1  0.94340267  0.29507398  0.04614097  1
  O  O442  1  0.88651822  0.28224366  0.10604332  1
  C  C443  1  0.96563013  0.47817192  0.03645644  1
  C  C444  1  0.96373852  0.45515837  0.10653591  1
  C  C445  1  0.81876057  0.30155692  0.32588779  1
  C  C446  1  0.92888394  0.46191866  0.15205824  1
  C  C447  1  0.86940663  0.29882657  0.16661482  1
  C  C448  1  0.75896750  0.42327969  0.13091372  1
  C  C449  1  0.84879129  0.25825211  0.29795936  1
  Zn  Zn450  1  0.97907552  0.33441379  0.31139860  1
  Zn  Zn451  1  0.83645870  0.40760329  0.25350929  1
  C  C452  1  0.77856910  0.38150314  0.06884576  1
  C  C453  1  0.92095082  0.30567023  0.45923038  1
  C  C454  1  0.82296221  0.39480158  0.03909980  1
  C  C455  1  0.95380831  0.40003183  0.49711412  1
  H  H456  1  0.74542503  0.31796313  0.90849057  1
  O  O457  1  0.74928605  0.47541570  0.91293651  1
  Zn  Zn458  1  0.70907835  0.45518380  0.99690729  1
  C  C459  1  0.93308321  0.35130245  0.51197765  1
  O  O460  1  0.99563178  0.47817666  0.91640635  1
  C  C461  1  0.88679122  0.38331170  0.95787643  1
  C  C462  1  0.98785885  0.27589160  0.82136789  1
  O  O463  1  0.92960323  0.26088075  0.90787029  1
  H  H464  1  0.98281568  0.47282373  0.53857361  1
  C  C465  1  0.95979894  0.47676511  0.68072341  1
  O  O466  1  0.83135122  0.30598523  0.87373911  1
  O  O467  1  0.88845737  0.41987154  0.91362413  1
  C  C468  1  0.81800223  0.33728411  0.92296703  1
  O  O469  1  0.94475672  0.48355473  0.74220775  1
  C  C470  1  0.93292699  0.37865909  0.63950433  1
  H  H471  1  0.90411069  0.30324840  0.59965345  1
  C  C472  1  0.84303697  0.36553836  0.97984005  1
  O  O473  1  0.89509096  0.32524791  0.72881497  1
  O  O474  1  0.98663051  0.29550129  0.95329471  1
  C  C475  1  0.96779605  0.27839853  0.89674316  1
  C  C476  1  0.76912948  0.33048808  0.95040699  1
  C  C477  1  0.96174865  0.43778158  0.55263394  1
  Zn  Zn478  1  0.88958638  0.28321417  0.82500089  1
  O  O479  1  0.94670677  0.37250852  0.77216080  1
  Zn  Zn480  1  0.94402406  0.44706707  0.85115197  1
  C  C481  1  0.95089972  0.43068588  0.62762322  1
  C  C482  1  0.92387639  0.35852858  0.72126388  1
  C  C483  1  0.92087797  0.34117741  0.58463025  1
  C  C484  1  0.68745033  0.69574858  0.26915216  1
  C  C485  1  0.60750783  0.66650934  0.27517234  1
  C  C486  1  0.66865638  0.67773395  0.20389449  1
  C  C487  1  0.70074829  0.68597646  0.14077770  1
  C  C488  1  0.62563635  0.66287177  0.20519729  1
  C  C489  1  0.59567549  0.64457157  0.14376754  1
  O  O490  1  0.56022516  0.63359032  0.16122688  1
  H  H491  1  0.71839070  0.71200658  0.26476096  1
  O  O492  1  0.69300692  0.67427072  0.07757469  1
  C  C493  1  0.66688763  0.69582937  0.33798847  1
  O  O494  1  0.60698236  0.64085511  0.07373172  1
  H  H495  1  0.57354322  0.65420239  0.27743085  1
  C  C496  1  0.62427019  0.67915399  0.34189873  1
  C  C497  1  0.59188505  0.67135347  0.40715856  1
  C  C498  1  0.69421901  0.71614964  0.40102037  1
  O  O499  1  0.55564248  0.66098980  0.39370018  1
  O  O500  1  0.68061078  0.71647704  0.46470574  1
  O  O501  1  0.60208099  0.67972733  0.47486862  1
  O  O502  1  0.73597769  0.70502624  0.15849668  1
  C  C503  1  0.68452660  0.52243908  0.40493393  1
  O  O504  1  0.70811822  0.53692993  0.36045298  1
  O  O505  1  0.72822241  0.73736372  0.38368559  1
  O  O506  1  0.66172205  0.50807291  0.45034971  1
  Zn  Zn507  1  0.63428963  0.69992894  0.01341696  1
  C  C508  1  0.99875955  0.67594493  0.04330492  1
  C  C509  1  0.98309953  0.60931786  0.13435672  1
  Zn  Zn510  1  0.77484398  0.72739741  0.06467461  1
  C  C511  1  0.94945365  0.61053264  0.37664360  1
  O  O512  1  0.98119799  0.59122621  0.41068310  1
  C  C513  1  0.89471711  0.67830489  0.36995109  1
  C  C514  1  0.97019661  0.65478216  0.09609183  1
  H  H515  1  0.87701650  0.55157915  0.04679518  1
  C  C516  1  0.92547071  0.67524619  0.12046385  1
  O  O517  1  0.83471529  0.55291123  0.15094385  1
  O  O518  1  0.91894965  0.68777067  0.18730224  1
  O  O519  1  0.94192867  0.59669326  0.31268538  1
  C  C520  1  0.85705734  0.51712671  0.17348768  1
  C  C521  1  0.93298077  0.51425251  0.01376135  1
  C  C522  1  0.92320077  0.65188775  0.41650855  1
  H  H523  1  0.96119662  0.58591600  0.17148662  1
  O  O524  1  0.89586230  0.67587157  0.07737521  1
  C  C525  1  0.86522975  0.71407765  0.39938954  1
  C  C526  1  0.86093164  0.72793839  0.47454636  1
  C  C527  1  0.90240834  0.52591315  0.06461202  1
  H  H528  1  0.89567231  0.67133117  0.31016224  1
  O  O529  1  0.84074418  0.72305474  0.27516394  1
  C  C530  1  0.92047923  0.66367376  0.49375129  1
  O  O531  1  0.99664179  0.71900262  0.45826161  1
  C  C532  1  0.83834684  0.74112421  0.34068630  1
  C  C533  1  0.89875369  0.50024672  0.13552811  1
  O  O534  1  0.79033810  0.65394112  0.01120377  1
  C  C535  1  0.62808669  0.62186960  0.68054551  1
  O  O536  1  0.63546778  0.66927751  0.64344443  1
  C  C537  1  0.67695692  0.70692509  0.85187566  1
  C  C538  1  0.72223563  0.71206718  0.83504969  1
  C  C539  1  0.66303851  0.59297531  0.72774085  1
  O  O540  1  0.59265424  0.60532921  0.68307251  1
  O  O541  1  0.66451243  0.67703610  0.90490899  1
  C  C542  1  0.70583517  0.59091805  0.71650935  1
  H  H543  1  0.61679338  0.57867070  0.81208557  1
  C  C544  1  0.65006635  0.57426523  0.79669751  1
  C  C545  1  0.72777780  0.60921217  0.64413415  1
  O  O546  1  0.70566554  0.61210010  0.58504392  1
  Zn  Zn547  1  0.65305947  0.65222761  0.52497914  1
  H  H548  1  0.73284356  0.66217437  0.93627325  1
  C  C549  1  0.73337825  0.56849574  0.76741516  1
  C  C550  1  0.67544958  0.55150663  0.85134059  1
  C  C551  1  0.71838888  0.54781070  0.83480199  1
  C  C552  1  0.65326940  0.54223759  0.92665273  1
  O  O553  1  0.57419219  0.73513283  0.95629015  1
  O  O554  1  0.67452705  0.52800399  0.98127986  1
  O  O555  1  0.65003260  0.73005043  0.81265728  1
  O  O556  1  0.61586390  0.54449750  0.92647805  1
  C  C557  1  0.74582624  0.73679654  0.77683620  1
  C  C558  1  0.74658640  0.68552950  0.88775621  1
  Zn  Zn559  1  0.62901845  0.74227329  0.70007772  1
  C  C560  1  0.75526037  0.52077553  0.87511695  1
  H  H561  1  0.79996927  0.74500470  0.71516427  1
  Zn  Zn562  1  0.90466883  0.67401595  0.95374346  1
  O  O563  1  0.98541507  0.51277251  0.65593393  1
  O  O564  1  0.95120401  0.74182245  0.99078209  1
  C  C565  1  0.89081083  0.70148376  0.51950156  1
  C  C566  1  0.81293890  0.70770981  0.82750262  1
  C  C567  1  0.78982725  0.68822299  0.88950203  1
  O  O568  1  0.94411221  0.60025670  0.94940714  1
  H  H569  1  0.76749343  0.56977705  0.75338927  1
  O  O570  1  0.76426003  0.61538140  0.64611741  1
  O  O571  1  0.97760302  0.61270142  0.55178868  1
  C  C572  1  0.81125291  0.65681622  0.95162442  1
  H  H573  1  0.88876354  0.70879241  0.57945627  1
  C  C574  1  0.93034844  0.55323932  0.94316972  1
  O  O575  1  0.78973023  0.53547280  0.86554048  1
  O  O576  1  0.87058805  0.71904840  0.74734020  1
  O  O577  1  0.93068008  0.64411622  0.62309913  1
  C  C578  1  0.94381239  0.63949224  0.55967895  1
  O  O579  1  0.84688437  0.63650288  0.94655267  1
  O  O580  1  0.88498508  0.72077979  0.86293187  1
  O  O581  1  0.91492920  0.53545295  0.88491673  1
  C  C582  1  0.85879829  0.71289237  0.80991386  1
  C  C583  1  0.78754956  0.72782779  0.76941921  1
  Zn  Zn584  1  0.97759554  0.59475107  0.68448692  1
  C  C585  1  0.98786950  0.72559837  0.99765337  1
  C  C586  1  0.57249840  0.91870694  0.15996113  1
  C  C587  1  0.58607739  0.86578163  0.18102766  1
  C  C588  1  0.60797765  0.83793151  0.12660350  1
  C  C589  1  0.58406531  0.82881072  0.25063807  1
  O  O590  1  0.56553339  0.83670637  0.31176158  1
  C  C591  1  0.61721511  0.85975373  0.05562566  1
  C  C592  1  0.57936360  0.94041414  0.08926069  1
  C  C593  1  0.68431895  0.86512922  0.42617285  1
  C  C594  1  0.55233147  0.96068738  0.21200355  1
  O  O595  1  0.55268573  0.95103262  0.27967423  1
  O  O596  1  0.65122568  0.85424716  0.39808278  1
  C  C597  1  0.59978773  0.90998441  0.03562559  1
  O  O598  1  0.71745588  0.86649963  0.38801089  1
  H  H599  1  0.62058666  0.79602720  0.13647938  1
  H  H600  1  0.56679468  0.98155347  0.07416035  1
  O  O601  1  0.60633966  0.78956701  0.24753287  1
  Zn  Zn602  1  0.51292471  0.88748099  0.32010565  1
  C  C603  1  0.51230032  0.78865440  0.03145330  1
  C  C604  1  0.67560427  0.95762560  0.15963746  1
  O  O605  1  0.65502013  0.77905979  0.03759687  1
  O  O606  1  0.50185952  0.76397664  0.18828794  1
  O  O607  1  0.67341764  0.91116582  0.14644459  1
  H  H608  1  0.52900895  0.75044680  0.04955425  1
  C  C609  1  0.64202001  0.82393374  0.00728083  1
  O  O610  1  0.88392202  0.81464592  0.11791568  1
  Zn  Zn611  1  0.89868422  0.96226096  0.24081980  1
  O  O612  1  0.93909300  0.80533421  0.25680495  1
  C  C613  1  0.94391435  0.85410768  0.27823431  1
  Zn  Zn614  1  0.88734982  0.76377340  0.20971526  1
  O  O615  1  0.94066826  0.89218921  0.23206926  1
  O  O616  1  0.75931636  0.80867411  0.02808659  1
  O  O617  1  0.81778792  0.78468285  0.34948179  1
  O  O618  1  0.77678017  0.89858918  0.46878962  1
  C  C619  1  0.96260983  0.96638218  0.36065392  1
  C  C620  1  0.96712006  0.81182434  0.39459920  1
  H  H621  1  0.96764677  0.77067352  0.36514298  1
  O  O622  1  0.82098129  0.78376740  0.11448850  1
  C  C623  1  0.85006671  0.80863721  0.08216431  1
  C  C624  1  0.97770932  0.81211175  0.46959879  1
  O  O625  1  0.85767364  0.96391362  0.14143002  1
  O  O626  1  0.84056920  0.95716831  0.28671814  1
  Zn  Zn627  1  0.76758061  0.81222479  0.40980810  1
  C  C628  1  0.97065420  0.91013013  0.47331616  1
  C  C629  1  0.95625152  0.85928505  0.35714570  1
  O  O630  1  0.95831488  0.97260263  0.29184129  1
  H  H631  1  0.91425800  0.85520851  0.02129130  1
  C  C632  1  0.96240605  0.91009848  0.39590920  1
  C  C633  1  0.84958281  0.82989427  0.00407489  1
  C  C634  1  0.67526199  0.89674183  0.66122688  1
  O  O635  1  0.69822522  0.91043403  0.78267589  1
  C  C636  1  0.71405453  0.90253475  0.62555670  1
  C  C637  1  0.66700118  0.90750364  0.74214868  1
  O  O638  1  0.64239195  0.95205970  0.94227297  1
  Zn  Zn639  1  0.69314401  0.90398697  0.90730416  1
  O  O640  1  0.63026135  0.91547308  0.76205957  1
  O  O641  1  0.65622195  0.83604666  0.94314928  1
  C  C642  1  0.64208277  0.88066817  0.61632024  1
  O  O643  1  0.51917113  0.85984953  0.80584394  1
  Zn  Zn644  1  0.58092390  0.86714066  0.80811580  1
  C  C645  1  0.71987085  0.89417940  0.55009540  1
  C  C646  1  0.60284088  0.85154074  0.64918018  1
  O  O647  1  0.57098587  0.85931168  0.61796630  1
  O  O648  1  0.60306542  0.81737768  0.70617435  1
  C  C649  1  0.64511215  0.87573335  0.53811394  1
  O  O650  1  0.58189341  0.92470296  0.90342470  1
  O  O651  1  0.56966286  0.79050855  0.86571607  1
  C  C652  1  0.55794572  0.77553636  0.92770858  1
  C  C653  1  0.60805182  0.93149281  0.95527877  1
  O  O654  1  0.69387381  0.78767801  0.71456436  1
  C  C655  1  0.52309799  0.80869624  0.96252076  1
  C  C656  1  0.68492475  0.87959101  0.50839846  1
  H  H657  1  0.61883842  0.86364924  0.50142493  1
  H  H658  1  0.74046579  0.91220817  0.66239174  1
  C  C659  1  0.72911082  0.77138454  0.71401645  1
  C  C660  1  0.50261969  0.85727944  0.93622857  1
  O  O661  1  0.74491571  0.84589903  0.91918127  1
  C  C662  1  0.89871209  0.86571691  0.90891285  1
  O  O663  1  0.79785412  0.99020945  0.87678070  1
  O  O664  1  0.95920252  0.90171188  0.84033305  1
  C  C665  1  0.97573079  0.86070357  0.50838320  1
  C  C666  1  0.88939693  0.84849666  0.98073355  1
  O  O667  1  0.97662710  0.82964327  0.64119414  1
  C  C668  1  0.83310997  0.76290696  0.52497163  1
  O  O669  1  0.75341577  0.78786453  0.66330635  1
  O  O670  1  0.79368089  0.90763680  0.58458734  1
  Zn  Zn671  1  0.96033948  0.84533470  0.74785527  1
  C  C672  1  0.81526128  0.83803946  0.95354826  1
  C  C673  1  0.82505141  0.85422784  0.88096785  1
  C  C674  1  0.86703850  0.87689055  0.77667006  1
  O  O675  1  0.84594696  0.77905637  0.58672521  1
  O  O676  1  0.90172048  0.88254383  0.74465516  1
  C  C677  1  0.86520256  0.86433438  0.85589130  1
  C  C678  1  0.98817248  0.86491784  0.59546748  1
  H  H679  1  0.79737039  0.85538275  0.84115578  1
  Zn  Zn680  1  0.81124640  0.83547685  0.65139538  1
  C  C681  1  0.94366624  0.88336417  0.90066420  1
  C  C682  1  0.76819832  0.90052090  0.53336036  1
  C  C683  1  0.77086123  0.83069843  0.96747613  1
  O  O684  1  0.83427547  0.88180941  0.73986121  1
  O  O685  1  0.96791265  0.87882133  0.95491293  1
  H  H686  1  0.97027822  0.94768563  0.50423293  1
  O  O687  1  0.79676963  0.77571246  0.50742226  1
