# generated using pymatgen
data_Cu2H13C21N10
_symmetry_space_group_name_H-M   'P 1'
_cell_length_a   31.81315698
_cell_length_b   11.31268838
_cell_length_c   21.35683530
_cell_angle_alpha   90.00000000
_cell_angle_beta   90.00000000
_cell_angle_gamma   90.00000000
_symmetry_Int_Tables_number   1
_chemical_formula_structural   Cu2H13C21N10
_chemical_formula_sum   'Cu32 H208 C336 N160'
_cell_volume   7686.16124459
_cell_formula_units_Z   16
loop_
 _symmetry_equiv_pos_site_id
 _symmetry_equiv_pos_as_xyz
  1  'x, y, z'
loop_
 _atom_site_type_symbol
 _atom_site_label
 _atom_site_symmetry_multiplicity
 _atom_site_fract_x
 _atom_site_fract_y
 _atom_site_fract_z
 _atom_site_occupancy
  N  N0  1  0.10190048  0.28028988  0.15733367  1
  C  C1  1  0.01067941  0.15594236  0.41623995  1
  N  N2  1  0.04997058  0.10881855  0.10417815  1
  H  H3  1  0.13852177  0.28539553  0.25317083  1
  H  H4  1  0.19540970  0.31638951  0.24760540  1
  H  H5  1  0.16413238  0.07865478  0.22889436  1
  C  C6  1  0.23961983  0.18695954  0.40937980  1
  C  C7  1  0.18045626  0.21746407  0.32709564  1
  C  C8  1  0.09548624  0.17314061  0.46737904  1
  C  C9  1  0.02280315  0.22990250  0.47410548  1
  Cu  Cu10  1  0.00198848  0.34426149  0.17863519  1
  C  C11  1  0.10691175  0.07247632  0.03366120  1
  H  H12  1  0.09252876  0.24212393  0.11654793  1
  C  C13  1  0.20970434  0.39919963  0.15989478  1
  H  H14  1  0.23853376  0.45056945  0.02423462  1
  C  C15  1  0.08434998  0.48140325  0.35831228  1
  N  N16  1  0.11329602  0.13473016  0.35489971  1
  N  N17  1  0.03357114  0.13373634  0.23735009  1
  C  C18  1  0.22568742  0.19057499  0.34438437  1
  C  C19  1  0.06575036  0.11419621  0.04861116  1
  N  N20  1  0.05340162  0.42038114  0.33750134  1
  N  N21  1  0.06398351  0.37451146  0.17396154  1
  H  H22  1  0.03273063  0.05841099  0.33695441  1
  C  C23  1  0.12653302  0.44404965  0.35839746  1
  C  C24  1  0.15031411  0.16838385  0.37576479  1
  C  C25  1  0.16361561  0.15335262  0.44120163  1
  H  H26  1  0.18819258  0.40007096  0.05428545  1
  Cu  Cu27  1  0.04057504  0.28613635  0.28726004  1
  C  C28  1  0.13730931  0.35300286  0.15945850  1
  C  C29  1  0.20751511  0.18976102  0.46392931  1
  C  C30  1  0.19107613  0.02154081  0.24647553  1
  H  H31  1  0.12799077  0.02401581  0.06664071  1
  H  H32  1  0.13697952  0.35650072  0.34788138  1
  C  C33  1  0.08327756  0.13121255  0.40056338  1
  C  C34  1  0.17030592  0.27017360  0.27327696  1
  H  H35  1  0.18618739  0.21806777  0.14065387  1
  C  C36  1  0.17790892  0.31280477  0.14759488  1
  Cu  Cu37  1  0.06906278  0.05091422  0.18086333  1
  C  C38  1  0.04123451  0.10384496  0.38170061  1
  H  H39  1  0.20296266  0.38989174  0.45128997  1
  N  N40  1  0.08071734  0.47637875  0.18476681  1
  N  N41  1  0.13559793  0.16832243  0.48399081  1
  H  H42  1  0.24198303  0.46672858  0.28901539  1
  N  N43  1  0.01118068  0.49766444  0.34730072  1
  H  H44  1  0.21855099  0.08084164  0.25396502  1
  C  C45  1  0.12432055  0.47562216  0.17868621  1
  H  H46  1  0.23285213  0.30131530  0.04912763  1
  C  C47  1  0.21626987  0.37548937  0.02439213  1
  C  C48  1  0.20746882  0.32428549  0.48722650  1
  C  C49  1  0.20382403  0.33362244  0.95866826  1
  H  H50  1  0.12212179  0.31185256  0.70625766  1
  H  H51  1  0.14482518  0.42454276  0.96591406  1
  N  N52  1  0.03290622  0.41167979  0.58815397  1
  C  C53  1  0.23525314  0.25694542  0.92371826  1
  C  C54  1  0.15336461  0.07908595  0.93302826  1
  C  C55  1  0.17022020  0.40307745  0.64628240  1
  C  C56  1  0.11752306  0.08765777  0.97080735  1
  C  C57  1  0.09605590  0.41346117  0.63029776  1
  H  H58  1  0.15772281  0.06607520  0.78311450  1
  H  H59  1  0.14643503  0.36317977  0.80555157  1
  H  H60  1  0.17910880  0.33064519  0.51737160  1
  C  C61  1  0.23916562  0.37117529  0.63281973  1
  H  H62  1  0.18345334  0.30688198  0.74676647  1
  H  H63  1  0.21432780  0.06217283  0.91891894  1
  C  C64  1  0.12782201  0.37721371  0.66823422  1
  C  C65  1  0.08708597  0.14418858  0.92086940  1
  H  H66  1  0.17974469  0.09422215  0.70771533  1
  N  N67  1  0.20209391  0.33670215  0.66267327  1
  C  C68  1  0.04555800  0.17564636  0.93610450  1
  H  H69  1  0.02408446  0.20977331  0.89928647  1
  H  H70  1  0.15184309  0.33474745  0.89377285  1
  C  C71  1  0.16980067  0.02312714  0.73712306  1
  H  H72  1  0.13526810  0.23247752  0.76507093  1
  N  N73  1  0.10713516  0.17517500  0.86926888  1
  N  N74  1  0.06630880  0.48747503  0.54268903  1
  C  C75  1  0.22351003  0.21563149  0.86093454  1
  C  C76  1  0.16061023  0.28215529  0.78576532  1
  N  N77  1  0.05380747  0.37378005  0.63544463  1
  C  C78  1  0.18024774  0.20610248  0.83656761  1
  C  C79  1  0.14914889  0.15013981  0.87293691  1
  C  C80  1  0.06391066  0.22762157  0.50038530  1
  N  N81  1  0.19148091  0.02962103  0.94792566  1
  H  H82  1  0.06542606  0.28003802  0.54418894  1
  C  C83  1  0.16591986  0.36514328  0.93716598  1
  H  H84  1  0.19581961  0.11199086  0.56047837  1
  C  C85  1  0.24690780  0.48285493  0.59747830  1
  C  C86  1  0.22075363  0.11581004  0.52325004  1
  C  C87  1  0.10239847  0.48531578  0.57200506  1
  Cu  Cu88  1  0.00609652  0.46175726  0.80114118  1
  H  H89  1  0.24461185  0.10473374  0.79089817  1
  H  H90  1  0.22402490  0.42362476  0.74857535  1
  H  H91  1  0.24240414  0.14252643  0.68770194  1
  H  H92  1  0.23438989  0.34941391  0.51772943  1
  H  H93  1  0.24933809  0.14914749  0.54655514  1
  C  C94  1  0.17568194  0.49632224  0.59409290  1
  C  C95  1  0.03372663  0.16112207  0.99873845  1
  H  H96  1  0.22998947  0.02047498  0.50633951  1
  H  H97  1  0.20474985  0.02088674  0.99101434  1
  C  C98  1  0.15470640  0.53337894  0.37674951  1
  N  N99  1  0.10523258  0.84352177  0.08938701  1
  C  C100  1  0.23979747  0.80990653  0.39145924  1
  C  C101  1  0.22603252  0.83020107  0.22801382  1
  C  C102  1  0.13911893  0.65885809  0.39507518  1
  C  C103  1  0.03328752  0.83845553  0.12924968  1
  N  N104  1  0.13327735  0.84571026  0.21886996  1
  C  C105  1  0.22508765  0.97427607  0.14183615  1
  H  H106  1  0.14419316  0.65455114  0.19260698  1
  H  H107  1  0.13937836  0.61688327  0.01638860  1
  C  C108  1  0.09307482  0.82626223  0.20598887  1
  C  C109  1  0.09566051  0.69055719  0.40073573  1
  C  C110  1  0.22812458  0.92479305  0.38339899  1
  C  C111  1  0.06812344  0.60921047  0.37657188  1
  H  H112  1  0.19496199  0.95619242  0.38223308  1
  Cu  Cu113  1  0.04211024  0.53838008  0.46892812  1
  N  N114  1  0.19561452  0.50214899  0.38211342  1
  C  C115  1  0.20876156  0.70971302  0.39804684  1
  N  N116  1  0.16804373  0.74024135  0.40663230  1
  H  H117  1  0.20706162  0.80113765  0.27028220  1
  C  C118  1  0.22251705  0.58914311  0.38753042  1
  C  C119  1  0.19625679  0.52724061  0.17031377  1
  H  H120  1  0.09040281  0.78329957  0.40948009  1
  H  H121  1  0.01995514  0.86014238  0.08219966  1
  H  H122  1  0.08029410  0.78183021  0.30445041  1
  N  N123  1  0.22489243  0.61184801  0.17905702  1
  Cu  Cu124  1  0.04020702  0.61242496  0.05867748  1
  C  C125  1  0.19968076  0.92563009  0.19555024  1
  N  N126  1  0.02851270  0.62325940  0.36791898  1
  C  C127  1  0.02424564  0.79608229  0.24439898  1
  C  C128  1  0.15800640  0.87364755  0.17480485  1
  H  H129  1  0.15989732  0.82376860  0.42197369  1
  C  C130  1  0.15467824  0.56325044  0.18333864  1
  C  C131  1  0.21997126  0.91391576  0.08046439  1
  C  C132  1  0.17790023  0.87030681  0.06062572  1
  C  C133  1  0.06740361  0.79891440  0.25688610  1
  C  C134  1  0.07843694  0.83432532  0.13767961  1
  C  C135  1  0.14383738  0.86057676  0.10872322  1
  H  H136  1  0.22907872  0.75049339  0.19276106  1
  C  C137  1  0.00922472  0.81741991  0.18006785  1
  H  H138  1  0.17946881  0.98911508  0.29125520  1
  C  C139  1  0.22921074  0.90909205  0.63110378  1
  H  H140  1  0.02664803  0.94992746  0.78763735  1
  C  C141  1  0.13568339  0.95322827  0.70396476  1
  N  N142  1  0.05512103  0.58129623  0.97711252  1
  H  H143  1  0.19249352  0.90247285  0.84449784  1
  N  N144  1  0.04092162  0.51684149  0.86659243  1
  C  C145  1  0.16116385  0.62505097  0.91673016  1
  C  C146  1  0.02170443  0.68029294  0.70698014  1
  N  N147  1  0.11429271  0.81149862  0.62976398  1
  H  H148  1  0.10102387  0.56120620  0.77804773  1
  C  C149  1  0.22065385  0.60608396  0.83147762  1
  H  H150  1  0.12063906  0.75949267  0.59365166  1
  N  N151  1  0.21334197  0.53548674  0.57740391  1
  C  C152  1  0.21546723  0.89531935  0.80547853  1
  C  C153  1  0.10961571  0.57018445  0.82871124  1
  C  C154  1  0.23968854  0.93057486  0.69690667  1
  C  C155  1  0.07140062  0.87044408  0.72051332  1
  C  C156  1  0.08047033  0.78499600  0.66732478  1
  C  C157  1  0.05569660  0.68451774  0.66352633  1
  C  C158  1  0.00944640  0.77248365  0.75515904  1
  C  C159  1  0.17560600  0.88937838  0.54663355  1
  H  H160  1  0.05811065  0.61587843  0.62748519  1
  C  C161  1  0.13086611  0.60717442  0.96511302  1
  C  C162  1  0.14218227  0.52872912  0.55461555  1
  C  C163  1  0.03486652  0.87332099  0.75949893  1
  C  C164  1  0.07997872  0.55317648  0.87521612  1
  N  N165  1  0.18253248  0.59052707  0.80700806  1
  C  C166  1  0.09001320  0.57589098  0.94572713  1
  C  C167  1  0.15015368  0.60608338  0.84781293  1
  C  C168  1  0.18384229  0.89923415  0.60816521  1
  C  C169  1  0.14416733  0.88834473  0.64595948  1
  N  N170  1  0.10110060  0.94936871  0.73620653  1
  H  H171  1  0.19103002  0.84116392  0.96328948  1
  C  C172  1  0.16822729  0.83589655  0.99986689  1
  N  N173  1  0.20047348  0.63941055  0.93832830  1
  C  C174  1  0.23028004  0.63980328  0.89576273  1
  N  N175  1  0.01562312  0.53610029  0.92954406  1
  C  C176  1  0.20984817  0.94593578  0.75049461  1
  H  H177  1  0.14389647  0.87244604  0.52694381  1
  H  H178  1  0.24131312  0.83199004  0.81342454  1
  H  H179  1  0.20027122  0.89415600  0.50967533  1
  H  H180  1  0.21236555  0.65277560  0.71940884  1
  H  H181  1  0.13602299  0.81746110  0.98548506  1
  C  C182  1  0.24786030  0.65182333  0.72497522  1
  H  H183  1  0.14955391  0.58206568  0.51229180  1
  N  N184  1  0.39666540  0.03534885  0.02875206  1
  C  C185  1  0.36473303  0.15211646  0.28471318  1
  N  N186  1  0.41668116  0.24368242  0.33951915  1
  H  H187  1  0.31139381  0.41150764  0.38837384  1
  C  C188  1  0.39493211  0.47163259  0.02510010  1
  C  C189  1  0.29365056  0.15347006  0.31667346  1
  N  N190  1  0.27805655  0.17728721  0.43065513  1
  C  C191  1  0.28388843  0.05168593  0.11167632  1
  Cu  Cu192  1  0.47825420  0.11518912  0.33641582  1
  C  C193  1  0.27886906  0.44031383  0.40416444  1
  N  N194  1  0.25004030  0.36546198  0.15378850  1
  C  C195  1  0.32349856  0.44132268  0.16688532  1
  C  C196  1  0.35241738  0.45696405  0.04981756  1
  C  C197  1  0.34748544  0.21670045  0.39502532  1
  N  N198  1  0.40091736  0.15177846  0.24093954  1
  C  C199  1  0.32539968  0.11625978  0.27160212  1
  C  C200  1  0.37694438  0.21278536  0.34432140  1
  N  N201  1  0.47963775  0.21762530  0.47453380  1
  C  C202  1  0.34988943  0.14065893  0.08496833  1
  N  N203  1  0.38739917  0.20492845  0.09392531  1
  C  C204  1  0.33851709  0.36991902  0.21511753  1
  H  H205  1  0.31674027  0.08528482  0.22509412  1
  H  H206  1  0.37239969  0.35567257  0.22145596  1
  C  C207  1  0.31323442  0.14467541  0.12000652  1
  H  H208  1  0.30293812  0.22034509  0.14909821  1
  C  C209  1  0.30489885  0.19383823  0.38327916  1
  Cu  Cu210  1  0.45816110  0.32258821  0.38353121  1
  N  N211  1  0.47990176  0.40297975  0.31464365  1
  H  H212  1  0.35705500  0.25077765  0.44122391  1
  N  N213  1  0.41685143  0.15107376  0.06348824  1
  H  H214  1  0.31617633  0.32195016  0.24707833  1
  C  C215  1  0.27629542  0.45418895  0.16561238  1
  N  N216  1  0.43084670  0.20668892  0.26515395  1
  N  N217  1  0.31589167  0.41470613  0.02151784  1
  Cu  Cu218  1  0.47629861  0.17084528  0.08413456  1
  H  H219  1  0.29341713  0.39972648  0.05131116  1
  N  N220  1  0.48366658  0.06987221  0.47776802  1
  H  H221  1  0.42569983  0.41957040  0.48316990  1
  H  H222  1  0.28107909  0.44614808  0.45617242  1
  C  C223  1  0.35557492  0.03941002  0.04029560  1
  C  C224  1  0.44062751  0.23418847  0.48839946  1
  C  C225  1  0.41539663  0.33378873  0.49631854  1
  N  N226  1  0.44609708  0.02596315  0.48447231  1
  N  N227  1  0.25415206  0.16869207  0.29906049  1
  H  H228  1  0.37412411  0.02385107  0.38925406  1
  C  C229  1  0.35242550  0.48426001  0.11669180  1
  H  H230  1  0.29860423  0.49590146  0.28307774  1
  H  H231  1  0.25858482  0.36345105  0.39210316  1
  N  N232  1  0.25277038  0.05799927  0.15230984  1
  C  C233  1  0.48072079  0.49625534  0.04014573  1
  C  C234  1  0.38034681  0.10015130  0.52946840  1
  H  H235  1  0.25643775  0.39923694  0.82031299  1
  C  C236  1  0.37440271  0.32919277  0.52230126  1
  C  C237  1  0.30273281  0.19212296  0.91646551  1
  H  H238  1  0.30854399  0.39416086  0.97707524  1
  H  H239  1  0.28313886  0.42282598  0.74394967  1
  N  N240  1  0.32458457  0.19656750  0.57810221  1
  C  C241  1  0.36299169  0.06147786  0.84014505  1
  C  C242  1  0.41784738  0.42266710  0.97319016  1
  C  C243  1  0.25489963  0.45198970  0.77365631  1
  C  C244  1  0.34431487  0.19502009  0.93680905  1
  N  N245  1  0.41415091  0.13372784  0.90450995  1
  C  C246  1  0.30305287  0.29597227  0.58422816  1
  N  N247  1  0.34980154  0.42448382  0.52262687  1
  N  N248  1  0.45447196  0.21797543  0.70243422  1
  C  C249  1  0.46133449  0.43563481  0.98411945  1
  N  N250  1  0.48220887  0.06274212  0.64042963  1
  N  N251  1  0.44009915  0.12648981  0.67728049  1
  N  N252  1  0.27176634  0.24478584  0.95103961  1
  C  C253  1  0.35928863  0.20779575  0.54658203  1
  H  H254  1  0.35471127  0.23626634  0.98114767  1
  C  C255  1  0.37402192  0.13618099  0.89670430  1
  N  N256  1  0.43301900  0.04277941  0.84635868  1
  C  C257  1  0.41909375  0.11773681  0.50304096  1
  C  C258  1  0.29198498  0.13800616  0.85251092  1
  C  C259  1  0.26894597  0.27957798  0.62922805  1
  C  C260  1  0.31387114  0.40920807  0.55343931  1
  H  H261  1  0.36687328  0.01314630  0.53818442  1
  H  H262  1  0.40611042  0.38057830  0.93344435  1
  C  C263  1  0.32203505  0.06735447  0.81875382  1
  Cu  Cu264  1  0.45162899  0.18261004  0.96328903  1
  Cu  Cu265  1  0.47498748  0.09733460  0.79038663  1
  C  C266  1  0.27293040  0.16511409  0.66464894  1
  N  N267  1  0.25256163  0.15339449  0.83004949  1
  N  N268  1  0.39910875  0.01358843  0.81453004  1
  H  H269  1  0.31081358  0.00673085  0.77907038  1
  N  N270  1  0.49332486  0.38141110  0.95888279  1
  H  H271  1  0.28142062  0.08534459  0.63478957  1
  C  C272  1  0.49875146  0.23330142  0.69054312  1
  H  H273  1  0.29786592  0.16909853  0.70340704  1
  C  C274  1  0.32368914  0.96039233  0.02031143  1
  H  H275  1  0.25627456  0.68516279  0.01519917  1
  H  H276  1  0.46409625  0.90127773  0.22077925  1
  N  N277  1  0.47262869  0.92897434  0.05340965  1
  H  H278  1  0.32548009  0.74048729  0.26949096  1
  C  C279  1  0.30190966  0.75469975  0.13568458  1
  C  C280  1  0.43860431  0.77255886  0.36225251  1
  C  C281  1  0.26804223  0.55460373  0.36965586  1
  N  N282  1  0.38870167  0.53091210  0.13397718  1
  C  C283  1  0.40857831  0.68141481  0.37124904  1
  N  N284  1  0.45938543  0.55204749  0.24393789  1
  N  N285  1  0.31310060  0.86731478  0.38706964  1
  N  N286  1  0.33657907  0.62531081  0.38263202  1
  N  N287  1  0.47814307  0.76273208  0.34016725  1
  C  C288  1  0.33283423  0.67272302  0.23263787  1
  C  C289  1  0.28642441  0.96293484  0.05542587  1
  C  C290  1  0.30015057  0.67097886  0.17779509  1
  C  C291  1  0.28611264  0.78091751  0.39030457  1
  C  C292  1  0.29706589  0.65719200  0.38270011  1
  Cu  Cu293  1  0.44348049  0.97567885  0.12564177  1
  N  N294  1  0.48177520  0.93579788  0.18682113  1
  H  H295  1  0.32451665  0.82336331  0.13486381  1
  H  H296  1  0.36434523  0.68907812  0.21282769  1
  N  N297  1  0.25185936  0.90447719  0.03959814  1
  H  H298  1  0.41755143  0.58923299  0.36332451  1
  H  H299  1  0.33311632  0.58439737  0.25299833  1
  C  C300  1  0.42598338  0.89861757  0.36637452  1
  C  C301  1  0.36684463  0.71351969  0.38392066  1
  C  C302  1  0.35451976  0.84239172  0.38772119  1
  C  C303  1  0.38356044  0.93347145  0.38243929  1
  N  N304  1  0.45725675  0.96537847  0.34586752  1
  H  H305  1  0.46900743  0.58222067  0.13159617  1
  H  H306  1  0.34618038  0.53932305  0.37829480  1
  C  C307  1  0.26464880  0.57932926  0.17378619  1
  C  C308  1  0.41310538  0.53408013  0.08165970  1
  H  H309  1  0.27606885  0.75887600  0.09968047  1
  H  H310  1  0.26810577  0.58322552  0.48327250  1
  H  H311  1  0.26394984  0.61587419  0.27092238  1
  H  H312  1  0.25149732  0.99715397  0.38240217  1
  C  C313  1  0.45756963  0.55247906  0.08619446  1
  H  H314  1  0.25617218  0.85258137  0.24795221  1
  C  C315  1  0.26731534  0.52990609  0.29925228  1
  N  N316  1  0.49742734  0.86672739  0.33850185  1
  N  N317  1  0.44389539  0.50549283  0.29087962  1
  N  N318  1  0.47213488  0.52588343  0.49252508  1
  N  N319  1  0.48729425  0.64778168  0.75951639  1
  H  H320  1  0.32854382  0.89512884  0.98264225  1
  C  C321  1  0.38085647  0.61712781  0.86828757  1
  H  H322  1  0.36207964  0.90702501  0.74509787  1
  C  C323  1  0.27452639  0.64621221  0.92032830  1
  Cu  Cu324  1  0.48069022  0.71885018  0.53921466  1
  C  C325  1  0.28645479  0.61324379  0.52561632  1
  N  N326  1  0.27799231  0.93606234  0.71868587  1
  N  N327  1  0.41650275  0.81210823  0.65240151  1
  C  C328  1  0.32208240  0.82618111  0.56277297  1
  N  N329  1  0.25646134  0.87544422  0.58905614  1
  N  N330  1  0.42979696  0.76314334  0.57864849  1
  H  H331  1  0.42958041  0.61227053  0.94373796  1
  Cu  Cu332  1  0.45688425  0.86197798  0.70762003  1
  C  C333  1  0.37361180  0.61349472  0.79630264  1
  Cu  Cu334  1  0.46554194  0.94015636  0.58808831  1
  C  C335  1  0.36221773  0.80665099  0.58375852  1
  C  C336  1  0.34973528  0.87253900  0.69982793  1
  N  N337  1  0.33517105  0.61478834  0.77246649  1
  C  C338  1  0.45030609  0.62060917  0.78541863  1
  H  H339  1  0.40687080  0.62720168  0.70731362  1
  C  C340  1  0.30314005  0.61850125  0.81212183  1
  H  H341  1  0.27027213  0.69564647  0.54331500  1
  C  C342  1  0.31132383  0.62460665  0.87764984  1
  C  C343  1  0.28985195  0.51663066  0.57617918  1
  N  N344  1  0.46641591  0.51988764  0.55451943  1
  N  N345  1  0.39524027  0.77471356  0.54521482  1
  C  C346  1  0.29404879  0.86163516  0.61243106  1
  N  N347  1  0.34910387  0.63587263  0.90474600  1
  C  C348  1  0.45651749  0.60547219  0.85336672  1
  C  C349  1  0.40952740  0.62256022  0.75699851  1
  C  C350  1  0.30783440  0.88937591  0.68093272  1
  H  H351  1  0.35460544  0.56989558  0.60461893  1
  C  C352  1  0.37676697  0.83118821  0.65175209  1
  C  C353  1  0.42249013  0.60431992  0.89534604  1
  H  H354  1  0.31675224  0.67217947  0.62945554  1
  C  C355  1  0.32114342  0.57277338  0.62411474  1
  C  C356  1  0.25866361  0.58647997  0.78822655  1
  Cu  Cu357  1  0.43698833  0.96377614  0.98294453  1
  H  H358  1  0.32248593  0.52973079  0.67016473  1
  N  N359  1  0.49660688  0.94281908  0.76412800  1
  H  H360  1  0.25793165  0.74428077  0.71987428  1
  C  C361  1  0.28179242  0.66483136  0.98211374  1
  H  H362  1  0.25983876  0.60503229  0.68272062  1
  H  H363  1  0.31570036  0.66883904  0.99967111  1
  H  H364  1  0.31955919  0.63548243  0.51054236  1
  H  H365  1  0.31187030  0.81548515  0.51306023  1
  C  C366  1  0.57612797  0.35768994  0.22510731  1
  C  C367  1  0.72370929  0.36483780  0.17653616  1
  N  N368  1  0.55312832  0.08857898  0.15441031  1
  C  C369  1  0.69827540  0.24659166  0.26839615  1
  H  H370  1  0.73204690  0.24122683  0.27714883  1
  H  H371  1  0.66684421  0.19487280  0.11766981  1
  N  N372  1  0.53182622  0.08263608  0.37328398  1
  H  H373  1  0.68578887  0.15644036  0.27740728  1
  Cu  Cu374  1  0.51119927  0.07227764  0.21654053  1
  C  C375  1  0.68813082  0.29355786  0.20211994  1
  C  C376  1  0.64515754  0.34871043  0.19487982  1
  N  N377  1  0.55946636  0.19657803  0.39920962  1
  H  H378  1  0.71495577  0.13913797  0.14988177  1
  C  C379  1  0.59843446  0.16503719  0.38632465  1
  N  N380  1  0.70970065  0.20085249  0.40238635  1
  N  N381  1  0.56064509  0.16167538  0.04885471  1
  C  C382  1  0.74330441  0.14567691  0.37828018  1
  N  N383  1  0.53630015  0.17938457  0.09679490  1
  H  H384  1  0.55269793  0.25422616  0.30428812  1
  C  C385  1  0.54684122  0.33089895  0.27100799  1
  C  C386  1  0.51182554  0.40808802  0.27447230  1
  H  H387  1  0.66426372  0.12060291  0.18680736  1
  C  C388  1  0.59033824  0.05218459  0.13548470  1
  Cu  Cu389  1  0.52656379  0.29476403  0.45078555  1
  N  N390  1  0.61645169  0.31034617  0.23041206  1
  C  C391  1  0.67292205  0.15282295  0.38528903  1
  C  C392  1  0.62863615  0.06473920  0.03218333  1
  H  H393  1  0.63771405  0.30119019  0.42953591  1
  C  C394  1  0.63658890  0.21384006  0.40475524  1
  C  C395  1  0.68399975  0.17920623  0.16302811  1
  C  C396  1  0.74212644  0.03349762  0.34234380  1
  C  C397  1  0.67402844  0.03494873  0.34596691  1
  C  C398  1  0.59506706  0.09600507  0.06843803  1
  C  C399  1  0.71224173  0.46017712  0.12623063  1
  H  H400  1  0.68579496  0.30990020  0.30488159  1
  C  C401  1  0.60191727  0.05541521  0.34191648  1
  C  C402  1  0.63815703  0.45829742  0.15792942  1
  N  N403  1  0.56392313  0.02165084  0.32393787  1
  C  C404  1  0.56803862  0.46634238  0.18544556  1
  H  H405  1  0.62300229  0.00684081  0.48502117  1
  C  C406  1  0.60201282  0.49179348  0.49841287  1
  H  H407  1  0.74881616  0.37810545  0.39887183  1
  N  N408  1  0.74247600  0.49181305  0.08914599  1
  N  N409  1  0.52558911  0.48880380  0.04082846  1
  H  H410  1  0.68578975  0.38330325  0.01524993  1
  H  H411  1  0.62760177  0.36313878  0.01405522  1
  N  N412  1  0.62012624  0.21662130  0.61889756  1
  N  N413  1  0.72697509  0.46925158  0.91528081  1
  C  C414  1  0.70064963  0.14480820  0.86035957  1
  H  H415  1  0.69698704  0.23013259  0.97963784  1
  H  H416  1  0.72727945  0.17187898  0.68193229  1
  C  C417  1  0.64577842  0.29746802  0.64207599  1
  H  H418  1  0.51751546  0.40106859  0.73773655  1
  C  C419  1  0.67162943  0.42853617  0.73214919  1
  H  H420  1  0.66920043  0.20609511  0.52797385  1
  H  H421  1  0.63080778  0.09425639  0.98379136  1
  C  C422  1  0.55661818  0.10420143  0.83737428  1
  H  H423  1  0.72280179  0.27643781  0.52382123  1
  C  C424  1  0.51425245  0.12981279  0.65352802  1
  N  N425  1  0.53822663  0.42149722  0.99823558  1
  C  C426  1  0.70852753  0.08477493  0.79957298  1
  C  C427  1  0.72279081  0.37351519  0.64120168  1
  C  C428  1  0.56892155  0.30707448  0.69012138  1
  C  C429  1  0.58224560  0.21164478  0.64470625  1
  C  C430  1  0.55528723  0.11935482  0.62939717  1
  C  C431  1  0.67583880  0.36326568  0.79693146  1
  C  C432  1  0.71532568  0.41671640  0.70372121  1
  C  C433  1  0.68761134  0.30975043  0.60893778  1
  C  C434  1  0.58957274  0.15534996  0.87086977  1
  H  H435  1  0.56914561  0.03870717  0.60785140  1
  H  H436  1  0.72925901  0.44751084  0.53800449  1
  Cu  Cu437  1  0.50876256  0.27231261  0.89872792  1
  H  H438  1  0.67391027  0.26758964  0.78850899  1
  C  C439  1  0.63146226  0.12223998  0.85268821  1
  C  C440  1  0.69379729  0.26135428  0.55041285  1
  N  N441  1  0.66343691  0.16507546  0.88546353  1
  N  N442  1  0.51674277  0.14626490  0.84200118  1
  C  C443  1  0.65437542  0.47043869  0.94063852  1
  H  H444  1  0.58329519  0.22238925  0.90506307  1
  N  N445  1  0.67853108  0.02922868  0.76948229  1
  H  H446  1  0.70823694  0.37787881  0.81764328  1
  C  C447  1  0.52572978  0.31934100  0.71135790  1
  N  N448  1  0.59838306  0.37049070  0.72058908  1
  C  C449  1  0.63778275  0.36999134  0.69726466  1
  H  H450  1  0.58856089  0.41711717  0.92941633  1
  H  H451  1  0.58706887  0.42816729  0.75337008  1
  C  C452  1  0.73767915  0.17239906  0.90167992  1
  C  C453  1  0.65724902  0.40338590  0.99203990  1
  C  C454  1  0.63991056  0.04762577  0.79521365  1
  H  H455  1  0.65464106  0.39765612  0.83172704  1
  C  C456  1  0.72957838  0.21892480  0.96035438  1
  H  H457  1  0.69514434  0.00066602  0.50086241  1
  C  C458  1  0.56584221  0.00990415  0.78571028  1
  N  N459  1  0.74741402  0.44848108  0.74010077  1
  H  H460  1  0.74449192  0.00600634  0.94607951  1
  N  N461  1  0.64288491  0.46328208  0.50406237  1
  H  H462  1  0.59210400  0.46663965  0.60207439  1
  C  C463  1  0.57864961  0.48865162  0.55560660  1
  C  C464  1  0.60822906  0.49229565  0.91866716  1
  N  N465  1  0.60091348  0.51567537  0.15618027  1
  C  C466  1  0.72991367  0.57586625  0.41645264  1
  N  N467  1  0.68858131  0.90006384  0.15935068  1
  C  C468  1  0.53154285  0.54365267  0.18864920  1
  H  H469  1  0.66966393  0.53271315  0.23686421  1
  H  H470  1  0.52772728  0.62046996  0.15717596  1
  H  H471  1  0.63586729  0.68489136  0.12233745  1
  C  C472  1  0.65725438  0.95347050  0.12989571  1
  H  H473  1  0.73950145  0.91901060  0.23421878  1
  H  H474  1  0.61928377  0.96556682  0.21526497  1
  C  C475  1  0.66083755  0.98996885  0.06086187  1
  N  N476  1  0.51922553  0.83579906  0.16134698  1
  N  N477  1  0.60119182  0.51194811  0.37985605  1
  H  H478  1  0.64234348  0.65813999  0.25925548  1
  C  C479  1  0.66581406  0.63956664  0.10289536  1
  C  C480  1  0.72011240  0.86842797  0.12195540  1
  H  H481  1  0.51924170  0.52664362  0.37772981  1
  C  C482  1  0.67205972  0.51611159  0.12412840  1
  H  H483  1  0.70692838  0.74144955  0.22650804  1
  H  H484  1  0.67868803  0.75672720  0.44698572  1
  N  N485  1  0.65869838  0.65617366  0.03279376  1
  H  H486  1  0.63315126  0.91790842  0.28442742  1
  C  C487  1  0.70266524  0.57129924  0.47317029  1
  C  C488  1  0.57223966  0.75678205  0.09518828  1
  N  N489  1  0.69474543  0.97193076  0.02702457  1
  Cu  Cu490  1  0.54083824  0.89804592  0.28040997  1
  C  C491  1  0.53373945  0.81828497  0.10443364  1
  C  C492  1  0.58674160  0.74693247  0.03287606  1
  C  C493  1  0.51405504  0.52045640  0.48300353  1
  H  H494  1  0.59117851  0.72336200  0.13426391  1
  C  C495  1  0.50240950  0.50183240  0.23000926  1
  C  C496  1  0.66256091  0.50846827  0.45634640  1
  C  C497  1  0.72140866  0.90705463  0.05684680  1
  H  H498  1  0.69370338  0.69505886  0.10794750  1
  C  C499  1  0.50841089  0.87512819  0.04507081  1
  C  C500  1  0.62157452  0.98661470  0.16622822  1
  C  C501  1  0.66909624  0.55026541  0.34005434  1
  C  C502  1  0.57976908  0.50336862  0.43139709  1
  Cu  Cu503  1  0.53009406  0.98804537  0.44617830  1
  C  C504  1  0.71317007  0.55668091  0.35255513  1
  C  C505  1  0.64185947  0.53267457  0.39313111  1
  N  N506  1  0.73987423  0.55798627  0.30300845  1
  C  C507  1  0.64921896  0.56424353  0.27530671  1
  C  C508  1  0.63482554  0.98935619  0.32105931  1
  C  C509  1  0.53664213  0.51416675  0.42418618  1
  H  H510  1  0.73788389  0.67491199  0.04311123  1
  C  C511  1  0.73854837  0.73183532  0.20671016  1
  H  H512  1  0.61810702  0.51309157  0.27394720  1
  H  H513  1  0.72977309  0.52523394  0.26109580  1
  C  C514  1  0.68797473  0.69902809  0.48765469  1
  N  N515  1  0.70766113  0.96614299  0.33504497  1
  C  C516  1  0.62613819  0.71049849  0.00662440  1
  H  H517  1  0.67957461  0.61398761  0.00215940  1
  H  H518  1  0.69321711  0.59237811  0.76673350  1
  H  H519  1  0.73185482  0.67853566  0.71577857  1
  C  C520  1  0.66303984  0.56226080  0.74139421  1
  H  H521  1  0.50772469  0.89968419  0.94228127  1
  N  N522  1  0.51090685  0.84093047  0.56903423  1
  H  H523  1  0.67000045  0.85750886  0.82475267  1
  N  N524  1  0.50201632  0.61325214  0.86512771  1
  Cu  Cu525  1  0.51271313  0.71145036  0.69016356  1
  C  C526  1  0.56231080  0.80183112  0.97810857  1
  C  C527  1  0.53574987  0.50574540  0.54502869  1
  C  C528  1  0.73086199  0.90557065  0.56792060  1
  C  C529  1  0.58292320  0.89359845  0.54751500  1
  C  C530  1  0.65559487  0.82735244  0.61515040  1
  H  H531  1  0.63248869  0.76142855  0.79064705  1
  N  N532  1  0.69569102  0.94540661  0.54201944  1
  C  C533  1  0.65595212  0.90951336  0.56011835  1
  C  C534  1  0.72630387  0.82199693  0.61846989  1
  H  H535  1  0.61587743  0.86114399  0.85107782  1
  C  C536  1  0.52302644  0.85799804  0.98293896  1
  C  C537  1  0.72372718  0.54159251  0.53655417  1
  C  C538  1  0.61725433  0.78597002  0.64239999  1
  C  C539  1  0.64206550  0.80700502  0.83624271  1
  H  H540  1  0.61722807  0.71311157  0.67669768  1
  H  H541  1  0.63522845  0.57692935  0.77510822  1
  N  N542  1  0.58589446  0.80368818  0.92628489  1
  C  C543  1  0.68549123  0.64293064  0.88084671  1
  H  H544  1  0.66091822  0.70951803  0.52236059  1
  C  C545  1  0.62102247  0.94554967  0.52470065  1
  C  C546  1  0.58098137  0.81767955  0.61008962  1
  C  C547  1  0.65037978  0.71919617  0.88906800  1
  C  C548  1  0.62077451  0.74321804  0.93825854  1
  H  H549  1  0.65747843  0.61204911  0.69733645  1
  N  N550  1  0.52188788  0.63206839  0.81645338  1
  N  N551  1  0.54200104  0.79532826  0.62789691  1
  N  N552  1  0.69095065  0.78058885  0.64151501  1
  H  H553  1  0.73089695  0.95725008  0.69678715  1
  N  N554  1  0.71806264  0.69395123  0.85150159  1
  N  N555  1  0.54649617  0.90431640  0.52205653  1
  H  H556  1  0.70381105  0.55786061  0.57736902  1
  C  C557  1  0.69195158  0.52434264  0.91128085  1
  H  H558  1  0.61157923  0.93990751  0.71983301  1
  N  N559  1  0.53567687  0.93691789  0.76007729  1
  H  H560  1  0.60855615  0.50784646  0.86937421  1
  H  H561  1  0.73121145  0.87201849  0.90912134  1
  N  N562  1  0.50312399  0.51227264  0.58630676  1
  H  H563  1  0.59483968  0.56940116  0.94613910  1
  H  H564  1  0.72558172  0.70249847  0.96054636  1
  C  C565  1  0.60561490  0.99594546  0.76203234  1
  H  H566  1  0.71542386  0.74356657  0.50924367  1
  C  C567  1  0.74857736  0.71764933  0.99873912  1
  Cu  Cu568  1  0.97947415  0.43069864  0.41168080  1
  N  N569  1  0.75973707  0.33330935  0.19823852  1
  C  C570  1  0.96001994  0.12413762  0.26516335  1
  H  H571  1  0.91326817  0.37649087  0.31795593  1
  H  H572  1  0.79910345  0.39856507  0.35154841  1
  C  C573  1  0.78193022  0.34221474  0.39029108  1
  N  N574  1  0.88511627  0.40162381  0.04029403  1
  C  C575  1  0.85957636  0.33214404  0.13026275  1
  H  H576  1  0.83684128  0.26943626  0.21936814  1
  N  N577  1  0.99810706  0.08747102  0.24148978  1
  N  N578  1  0.91928583  0.30517495  0.07874589  1
  N  N579  1  0.84730161  0.24230902  0.33286064  1
  H  H580  1  0.77425075  0.03637602  0.21512048  1
  N  N581  1  0.94979728  0.23384466  0.45057489  1
  N  N582  1  0.96662837  0.16353776  0.41296153  1
  C  C583  1  0.88745572  0.06806882  0.29200784  1
  C  C584  1  0.78159210  0.21129028  0.37447368  1
  C  C585  1  0.81737035  0.15902303  0.34594284  1
  C  C586  1  0.91714093  0.28159997  0.30580024  1
  C  C587  1  0.95592485  0.24982853  0.28244862  1
  N  N588  1  0.89853227  0.26995905  0.12699613  1
  C  C589  1  0.92768944  0.03827257  0.27091477  1
  N  N590  1  0.98627313  0.33296677  0.26470136  1
  C  C591  1  0.81965037  0.03521126  0.32466219  1
  C  C592  1  0.85034872  0.40379931  0.07143238  1
  N  N593  1  0.97656785  0.22740569  0.06253913  1
  C  C594  1  0.82914660  0.31660466  0.17431754  1
  H  H595  1  0.80241103  0.35472163  0.43196790  1
  C  C596  1  0.88412336  0.19820432  0.31359679  1
  C  C597  1  0.78853553  0.36135817  0.15673176  1
  C  C598  1  0.77938560  0.44232381  0.09873241  1
  N  N599  1  0.99851448  0.21212444  0.01375054  1
  H  H600  1  0.75142409  0.05291359  0.46267750  1
  C  C601  1  0.81268806  0.46644260  0.05704612  1
  Cu  Cu602  1  0.99545484  0.13572987  0.13296954  1
  N  N603  1  0.99042951  0.28686361  0.49460676  1
  C  C604  1  0.83314252  0.33940171  0.63186965  1
  H  H605  1  0.78819851  0.00866759  0.62739444  1
  C  C606  1  0.86240627  0.41813702  0.73290253  1
  C  C607  1  0.86641645  0.36874151  0.66880470  1
  C  C608  1  0.78058720  0.16474548  0.87397511  1
  C  C609  1  0.92863395  0.21560983  0.82314729  1
  C  C610  1  0.92441505  0.25945849  0.88981526  1
  H  H611  1  0.80808798  0.22846778  0.95339737  1
  C  C612  1  0.85457321  0.19200281  0.89116389  1
  H  H613  1  0.88477930  0.26753663  0.97603144  1
  C  C614  1  0.89686677  0.14765442  0.79771379  1
  C  C615  1  0.88774768  0.24100788  0.92585788  1
  N  N616  1  0.82441141  0.07823961  0.79646846  1
  N  N617  1  0.95716672  0.32574787  0.90271612  1
  C  C618  1  0.85772557  0.12954365  0.82903704  1
  N  N619  1  0.96540573  0.25004774  0.79465364  1
  C  C620  1  0.78617605  0.10716280  0.81268295  1
  N  N621  1  0.81314885  0.19092774  0.91036003  1
  N  N622  1  0.90857101  0.36166719  0.65044672  1
  C  C623  1  0.79954995  0.48176482  0.91313601  1
  H  H624  1  0.89968710  0.11576448  0.74859767  1
  Cu  Cu625  1  0.91140997  0.47963496  0.97353390  1
  H  H626  1  0.83280558  0.30319301  0.58425619  1
  N  N627  1  0.76171652  0.35264923  0.61875573  1
  C  C628  1  0.79311767  0.37738720  0.65740063  1
  Cu  Cu629  1  0.98713839  0.40491094  0.96465956  1
  C  C630  1  0.78785773  0.42280945  0.72484048  1
  N  N631  1  0.93121064  0.40002835  0.69704111  1
  H  H632  1  0.78381026  0.14954112  0.68674010  1
  Cu  Cu633  1  0.97305774  0.37027617  0.56583814  1
  H  H634  1  0.76780931  0.11904351  0.57786697  1
  H  H635  1  0.80287631  0.39568979  0.93892898  1
  Cu  Cu636  1  0.98948701  0.44070682  0.68050924  1
  N  N637  1  0.89952862  0.46418699  0.75094814  1
  C  C638  1  0.78924314  0.04262705  0.57813191  1
  C  C639  1  0.82288592  0.44564465  0.76260341  1
  H  H640  1  0.82287292  0.06140056  0.56632110  1
  H  H641  1  0.81988840  0.47813103  0.81006934  1
  C  C642  1  0.75120526  0.07585566  0.76754911  1
  C  C643  1  0.75512354  0.16867920  0.71489003  1
  H  H644  1  0.75737894  0.26072555  0.73611900  1
  N  N645  1  0.98648638  0.31714923  0.83554583  1
  H  H646  1  0.75557184  0.25601634  0.99066664  1
  Cu  Cu647  1  0.98178445  0.72533089  0.36601290  1
  N  N648  1  0.79470383  0.86217269  0.02420053  1
  C  C649  1  0.83798436  0.62703474  0.39683412  1
  N  N650  1  0.96367472  0.56268482  0.10358169  1
  C  C651  1  0.89479533  0.62929237  0.14358186  1
  N  N652  1  0.95309054  0.65003574  0.00124892  1
  C  C653  1  0.86622198  0.58828236  0.35128333  1
  N  N654  1  0.99267375  0.76998446  0.28242457  1
  Cu  Cu655  1  0.98518091  0.50151552  0.26968425  1
  C  C656  1  0.75405210  0.85357547  0.01037059  1
  H  H657  1  0.75599632  0.90181339  0.44128528  1
  N  N658  1  0.82382358  0.70501069  0.16100399  1
  C  C659  1  0.79428915  0.75982806  0.12928085  1
  C  C660  1  0.81113541  0.79785243  0.06777603  1
  C  C661  1  0.85353787  0.74450816  0.06215198  1
  C  C662  1  0.78145971  0.57213024  0.31300521  1
  C  C663  1  0.78023791  0.83999325  0.33327660  1
  H  H664  1  0.76250708  0.67619269  0.23042362  1
  N  N665  1  0.98608090  0.54978046  0.47027765  1
  C  C666  1  0.85830846  0.68932207  0.12627505  1
  H  H667  1  0.75046972  0.79006719  0.32192250  1
  C  C668  1  0.79624347  0.60140735  0.37891764  1
  N  N669  1  0.96304779  0.81609851  0.18107613  1
  N  N670  1  0.76889306  0.60474232  0.42675568  1
  C  C671  1  0.80950202  0.53301928  0.26570529  1
  H  H672  1  0.84769272  0.66033700  0.44399312  1
  C  C673  1  0.90153707  0.77838747  0.47644718  1
  C  C674  1  0.91963786  0.66854735  0.03208380  1
  N  N675  1  0.92208786  0.53693685  0.29743641  1
  H  H676  1  0.80679489  0.79192548  0.30911872  1
  C  C677  1  0.93424419  0.69383316  0.48485516  1
  N  N678  1  0.95103869  0.78115561  0.23370363  1
  N  N679  1  0.98431321  0.56531820  0.04971522  1
  N  N680  1  0.96599391  0.67799894  0.44761387  1
  C  C681  1  0.92509959  0.61584035  0.09739047  1
  C  C682  1  0.88232767  0.73482609  0.01430976  1
  H  H683  1  0.78690935  0.83174162  0.38529633  1
  C  C684  1  0.85124445  0.53781561  0.28871012  1
  H  H685  1  0.81113241  0.53237041  0.02032437  1
  N  N686  1  0.90894232  0.58685238  0.35107572  1
  H  H687  1  0.93283883  0.94807338  0.25505587  1
  H  H688  1  0.90015471  0.59788237  0.19415187  1
  H  H689  1  0.90140747  0.84064943  0.43828949  1
  H  H690  1  0.79627191  0.89175916  0.22177036  1
  N  N691  1  0.88775265  0.51813264  0.25885576  1
  C  C692  1  0.75018351  0.78472155  0.15365551  1
  C  C693  1  0.77251383  0.95302594  0.24299400  1
  N  N694  1  0.85567014  0.99237186  0.30153585  1
  C  C695  1  0.77058967  0.97052695  0.47124300  1
  C  C696  1  0.77985530  0.97075770  0.31534385  1
  H  H697  1  0.80364661  0.98191013  0.45336969  1
  H  H698  1  0.79831288  0.50135167  0.21905633  1
  H  H699  1  0.78646450  0.95625852  0.70540442  1
  H  H700  1  0.77902827  0.67570728  0.98335182  1
  H  H701  1  0.79107738  0.76243915  0.79889003  1
  C  C702  1  0.86888842  0.76484018  0.52074167  1
  N  N703  1  0.96348047  0.63106733  0.77079967  1
  C  C704  1  0.77275170  0.93590117  0.54036822  1
  N  N705  1  0.83536021  0.67670549  0.61437202  1
  N  N706  1  0.97814932  0.73073600  0.79406223  1
  H  H707  1  0.87496558  0.77114906  0.96549421  1
  C  C708  1  0.80410016  0.75299312  0.60172437  1
  H  H709  1  0.78845604  0.61991732  0.70707041  1
  C  C710  1  0.80539551  0.83724117  0.55242988  1
  C  C711  1  0.93434764  0.60795177  0.54221406  1
  Cu  Cu712  1  0.97200825  0.64198302  0.91808775  1
  H  H713  1  0.83343536  0.62816747  0.65473642  1
  C  C714  1  0.82967179  0.65857433  0.85997802  1
  N  N715  1  0.89753783  0.66578475  0.88565240  1
  C  C716  1  0.83498901  0.55559956  0.90258355  1
  H  H717  1  0.90550897  0.54680644  0.63155677  1
  C  C718  1  0.87117637  0.68322616  0.57923056  1
  C  C719  1  0.90556222  0.61272405  0.59248573  1
  N  N720  1  0.83794633  0.84364050  0.51383451  1
  N  N721  1  0.96220396  0.52501031  0.53358988  1
  C  C722  1  0.79296125  0.69895383  0.83525262  1
  N  N723  1  0.87020452  0.71739960  0.85343912  1
  N  N724  1  0.87292614  0.55412667  0.92307008  1
  C  C725  1  0.75609097  0.95869535  0.73167338  1
  H  H726  1  0.78551897  0.90678953  0.92331978  1
  C  C727  1  0.76436851  0.75318477  0.64205608  1
  C  C728  1  0.76167237  0.67699357  0.69008746  1
  C  C729  1  0.75455419  0.64027842  0.85471552  1
  C  C730  1  0.76119902  0.52764016  0.89258623  1
  N  N731  1  0.99713247  0.59089699  0.71252924  1
  C  C732  1  0.75340556  0.91152480  0.94463579  1
  Cu  Cu733  1  0.93034229  0.52606956  0.81772396  1
  H  H734  1  0.75146413  0.87939718  0.76253231  1
  H  H735  1  0.75585710  0.58521939  0.54171359  1
