# generated using pymatgen
data_Cu2H13C21N10
_symmetry_space_group_name_H-M   'P 1'
_cell_length_a   32.30017787
_cell_length_b   11.88068022
_cell_length_c   20.10858160
_cell_angle_alpha   90.00000000
_cell_angle_beta   90.00000000
_cell_angle_gamma   90.00000000
_symmetry_Int_Tables_number   1
_chemical_formula_structural   Cu2H13C21N10
_chemical_formula_sum   'Cu32 H208 C336 N160'
_cell_volume   7716.62966721
_cell_formula_units_Z   16
loop_
 _symmetry_equiv_pos_site_id
 _symmetry_equiv_pos_as_xyz
  1  'x, y, z'
loop_
 _atom_site_type_symbol
 _atom_site_label
 _atom_site_symmetry_multiplicity
 _atom_site_fract_x
 _atom_site_fract_y
 _atom_site_fract_z
 _atom_site_occupancy
  C  C0  1  0.20298609  0.08490443  0.40507998  1
  C  C1  1  0.13818842  0.29703809  0.27150470  1
  C  C2  1  0.06272863  0.15543194  0.44506835  1
  C  C3  1  0.20123389  0.21433446  0.40416070  1
  Cu  Cu4  1  0.00632425  0.41105383  0.11110921  1
  H  H5  1  0.17288199  0.25328302  0.38082672  1
  N  N6  1  0.20799121  0.27988606  0.24601483  1
  H  H7  1  0.14361282  0.27358335  0.32330696  1
  H  H8  1  0.17475470  0.07589964  0.11027278  1
  H  H9  1  0.06547688  0.23350719  0.41500586  1
  C  C10  1  0.09925041  0.31984849  0.24844513  1
  C  C11  1  0.17157883  0.30737628  0.22389887  1
  H  H12  1  0.11327352  0.37804794  0.07131091  1
  N  N13  1  0.18978840  0.34150025  0.10309036  1
  C  C14  1  0.23378213  0.27565497  0.19521641  1
  N  N15  1  0.03141171  0.34591003  0.24779602  1
  H  H16  1  0.12164539  0.49723582  0.28082226  1
  H  H17  1  0.20197396  0.24870513  0.45836776  1
  N  N18  1  0.13238513  0.11258781  0.43003293  1
  C  C19  1  0.12033369  0.35698745  0.12521565  1
  N  N20  1  0.06325357  0.31717646  0.28515994  1
  H  H21  1  0.10019291  0.43203396  0.47123445  1
  H  H22  1  0.22988298  0.41874962  0.44680493  1
  N  N23  1  0.04955399  0.37122095  0.17121448  1
  C  C24  1  0.16512905  0.04728782  0.44326466  1
  Cu  Cu25  1  0.01494902  0.49193639  0.33475279  1
  C  C26  1  0.16006358  0.33734439  0.14890486  1
  C  C27  1  0.22592899  0.30490077  0.12343806  1
  H  H28  1  0.22881189  0.25030635  0.37780126  1
  C  C29  1  0.02425493  0.11172642  0.46760198  1
  C  C30  1  0.08997494  0.34991285  0.17560310  1
  C  C31  1  0.20799094  0.05453276  0.13064608  1
  H  H32  1  0.20821350  0.09054564  0.18432366  1
  C  C33  1  0.24337743  0.04901644  0.43745947  1
  C  C34  1  0.09732469  0.08665333  0.46088753  1
  C  C35  1  0.24680785  0.28565030  0.05901700  1
  H  H36  1  0.23229395  0.10148943  0.10172689  1
  C  C37  1  0.19730472  0.04577092  0.33356610  1
  H  H38  1  0.08314112  0.25878473  0.00506888  1
  H  H39  1  0.22629019  0.47479661  0.19515030  1
  H  H40  1  0.17862929  0.10346289  0.30084007  1
  H  H41  1  0.22982909  0.03375186  0.30891087  1
  N  N42  1  0.00188179  0.36647654  0.01731952  1
  H  H43  1  0.18804796  0.28138029  0.00109538  1
  H  H44  1  0.22868747  0.22373409  0.75211337  1
  C  C45  1  0.21742454  0.15151828  0.72029545  1
  H  H46  1  0.18458974  0.13587784  0.73065464  1
  C  C47  1  0.19673710  0.27218289  0.62108525  1
  C  C48  1  0.05931514  0.39129405  0.55363807  1
  H  H49  1  0.15004237  0.37037090  0.95198358  1
  C  C50  1  0.13540347  0.37357797  0.55541460  1
  H  H51  1  0.09083932  0.30230434  0.71830418  1
  C  C52  1  0.09827172  0.40241537  0.52232884  1
  H  H53  1  0.21504304  0.10541937  0.55104692  1
  H  H54  1  0.23916004  0.00700495  0.60976554  1
  C  C55  1  0.13073357  0.33068547  0.62925476  1
  C  C56  1  0.09310418  0.33441946  0.66331064  1
  C  C57  1  0.05661349  0.36283040  0.63051624  1
  N  N58  1  0.09998901  0.07266659  0.79188361  1
  N  N59  1  0.16206784  0.27910438  0.65570996  1
  N  N60  1  0.23729509  0.10678669  0.85717171  1
  C  C61  1  0.15269152  0.42816861  0.78485955  1
  C  C62  1  0.07754384  0.28620750  0.89777849  1
  C  C63  1  0.19689864  0.27901496  0.84167331  1
  Cu  Cu64  1  0.04800760  0.07667150  0.75001648  1
  C  C65  1  0.20199240  0.32823171  0.55822600  1
  C  C66  1  0.15573466  0.34082963  0.84366675  1
  N  N67  1  0.22739457  0.34678838  0.83233236  1
  N  N68  1  0.02237055  0.40225763  0.53324053  1
  C  C69  1  0.22522418  0.17912120  0.64691494  1
  C  C70  1  0.04938696  0.31369257  0.84387346  1
  C  C71  1  0.12220193  0.12497864  0.82486769  1
  C  C72  1  0.06460690  0.29233272  0.96108740  1
  H  H73  1  0.20996804  0.44219473  0.66264749  1
  C  C74  1  0.21398152  0.07566407  0.60429008  1
  C  C75  1  0.02221277  0.33121413  0.96594979  1
  C  C76  1  0.11375310  0.25956857  0.84723419  1
  C  C77  1  0.24327706  0.48338344  0.66394838  1
  N  N78  1  0.08449440  0.30211983  0.80363396  1
  C  C79  1  0.20198416  0.15922477  0.85625209  1
  N  N80  1  0.01721425  0.36744995  0.65140023  1
  C  C81  1  0.00598004  0.34389866  0.84052535  1
  H  H82  1  0.17722426  0.49294631  0.78668665  1
  C  C83  1  0.15128331  0.42022200  0.90475662  1
  C  C84  1  0.16654960  0.07707229  0.84925566  1
  H  H85  1  0.15644479  0.37984392  0.73757261  1
  N  N86  1  0.17102057  0.37488730  0.52426734  1
  H  H87  1  0.23495344  0.07471343  0.73807524  1
  H  H88  1  0.17809893  0.48399515  0.90665434  1
  H  H89  1  0.12072942  0.46501283  0.89874744  1
  H  H90  1  0.18170557  0.04390757  0.61512354  1
  H  H91  1  0.12042944  0.46440361  0.78385803  1
  C  C92  1  0.02046089  0.00715939  0.50585097  1
  C  C93  1  0.24567484  0.31444577  0.52916266  1
  H  H94  1  0.22751381  0.17585763  0.97892344  1
  C  C95  1  0.22344681  0.26517812  0.99422711  1
  H  H96  1  0.23384131  0.32227273  0.95468298  1
  N  N97  1  0.15638382  0.81771466  0.27111457  1
  N  N98  1  0.14845230  0.85155306  0.13109538  1
  N  N99  1  0.01208624  0.68022382  0.13823589  1
  H  H100  1  0.18148674  0.96209317  0.32885587  1
  C  C101  1  0.11269219  0.65499392  0.43415649  1
  C  C102  1  0.18406648  0.61806526  0.40747653  1
  H  H103  1  0.18640037  0.91149486  0.02997049  1
  C  C104  1  0.18874576  0.84214512  0.23216022  1
  C  C105  1  0.18401984  0.86799424  0.16266416  1
  H  H106  1  0.21975935  0.79631568  0.05542698  1
  C  C107  1  0.16389322  0.96018698  0.49320117  1
  N  N108  1  0.22385259  0.62980103  0.42666643  1
  C  C109  1  0.22892054  0.85345665  0.27003233  1
  H  H110  1  0.15841524  0.80130082  0.32132005  1
  C  C111  1  0.15842267  0.59714236  0.03565976  1
  C  C112  1  0.10123527  0.58482182  0.37268484  1
  C  C113  1  0.21661678  0.88883109  0.05357324  1
  N  N114  1  0.04599775  0.64289219  0.44236219  1
  C  C115  1  0.11854988  0.80489231  0.16546915  1
  C  C116  1  0.11854613  0.79628213  0.24072345  1
  C  C117  1  0.08274040  0.77723357  0.27712169  1
  C  C118  1  0.23485864  0.81616780  0.33304980  1
  C  C119  1  0.04699163  0.74063526  0.23942620  1
  C  C120  1  0.04833337  0.72953680  0.16388090  1
  C  C121  1  0.08228599  0.76593348  0.12937210  1
  N  N122  1  0.05044492  0.59423161  0.01425874  1
  H  H123  1  0.08358374  0.76638242  0.33203726  1
  C  C124  1  0.15348266  0.67589960  0.44923359  1
  N  N125  1  0.07972834  0.67544880  0.47438405  1
  N  N126  1  0.01113251  0.70014389  0.26176147  1
  H  H127  1  0.20923910  0.79248246  0.36457213  1
  H  H128  1  0.24163087  0.91304762  0.01875982  1
  H  H129  1  0.08116681  0.77055450  0.07411456  1
  C  C130  1  0.21841885  0.92960923  0.12591835  1
  N  N131  1  0.08436041  0.57125459  0.04830107  1
  C  C132  1  0.13011955  0.54241682  0.32780981  1
  N  N133  1  0.06098279  0.57507214  0.37496703  1
  C  C134  1  0.17263672  0.56755339  0.34035830  1
  C  C135  1  0.11860080  0.60181659  0.00958656  1
  C  C136  1  0.24449689  0.96565910  0.49049832  1
  C  C137  1  0.24162185  0.55752365  0.32030584  1
  N  N138  1  0.23101641  0.63748669  0.01667826  1
  H  H139  1  0.16443259  0.56933921  0.08898499  1
  N  N140  1  0.20263726  0.53947035  0.30054153  1
  H  H141  1  0.16231490  0.72353664  0.49167818  1
  C  C142  1  0.06529562  0.73663148  0.67424553  1
  N  N143  1  0.17098679  0.62734841  0.65258796  1
  H  H144  1  0.18301731  0.78559281  0.58532787  1
  H  H145  1  0.19633295  0.89649613  0.75617051  1
  H  H146  1  0.04996718  0.86377924  0.55175987  1
  C  C147  1  0.21876941  0.76683532  0.70308124  1
  C  C148  1  0.20922899  0.66450643  0.66478913  1
  C  C149  1  0.17936549  0.67102739  0.92226394  1
  N  N150  1  0.18680489  0.83086151  0.72889915  1
  C  C151  1  0.07610109  0.84819935  0.71194670  1
  C  C152  1  0.20901961  0.83333383  0.56155410  1
  Cu  Cu153  1  0.00830836  0.58722886  0.61197650  1
  H  H154  1  0.11576499  0.95044157  0.77065590  1
  H  H155  1  0.09306097  0.59247223  0.62897202  1
  N  N156  1  0.12879465  0.92590672  0.52501804  1
  C  C157  1  0.13899167  0.68062164  0.89698187  1
  C  C158  1  0.13947993  0.69246527  0.67721112  1
  C  C159  1  0.14741800  0.79492021  0.71837371  1
  C  C160  1  0.05435282  0.94275487  0.52526439  1
  H  H161  1  0.13406477  0.70880786  0.84585312  1
  C  C162  1  0.10743135  0.65459349  0.94325137  1
  H  H163  1  0.22873706  0.65616565  0.52760502  1
  N  N164  1  0.03187897  0.70989887  0.88563962  1
  C  C165  1  0.11513506  0.86739071  0.73833195  1
  C  C166  1  0.09774526  0.66655978  0.65862672  1
  N  N167  1  0.05312252  0.93487317  0.71462342  1
  N  N168  1  0.02941657  0.70732798  0.65561182  1
  C  C169  1  0.23017300  0.57410407  0.55857104  1
  N  N170  1  0.20940522  0.66587711  0.87701960  1
  N  N171  1  0.06717500  0.66509232  0.94695957  1
  H  H172  1  0.14132281  0.91835517  0.84527391  1
  H  H173  1  0.12677881  0.85645545  0.55539593  1
  Cu  Cu174  1  0.00154406  0.93971503  0.67532902  1
  H  H175  1  0.23852634  0.80780404  0.58344740  1
  C  C176  1  0.20343868  0.91537857  0.51850659  1
  C  C177  1  0.09505879  0.98455066  0.50800927  1
  H  H178  1  0.19473450  0.93030816  0.88148374  1
  H  H179  1  0.19840850  0.53974387  0.55910496  1
  C  C180  1  0.16856806  0.96950625  0.85980145  1
  C  C181  1  0.24319444  0.60225129  0.63082382  1
  C  C182  1  0.24830962  0.66113285  0.90203768  1
  H  H183  1  0.24215829  0.94730476  0.78119529  1
  C  C184  1  0.19158991  0.63316507  0.99473299  1
  H  H185  1  0.43811083  0.30472095  0.19407123  1
  H  H186  1  0.32374940  0.46528030  0.43501024  1
  N  N187  1  0.34643583  0.31535564  0.20070441  1
  Cu  Cu188  1  0.45537013  0.19547520  0.36596436  1
  C  C189  1  0.37238722  0.27538734  0.02221906  1
  C  C190  1  0.38828149  0.04835893  0.42557562  1
  C  C191  1  0.28455212  0.13057510  0.24340537  1
  N  N192  1  0.45987344  0.47909208  0.25180126  1
  C  C193  1  0.28231690  0.32157034  0.29053939  1
  C  C194  1  0.30936759  0.28734314  0.17756731  1
  N  N195  1  0.44379806  0.40893737  0.29022815  1
  N  N196  1  0.27599210  0.10055585  0.41367436  1
  N  N197  1  0.42617718  0.08083471  0.41165773  1
  H  H198  1  0.26777642  0.09744332  0.28671662  1
  H  H199  1  0.35001014  0.17998386  0.37319281  1
  H  H200  1  0.25550969  0.35542844  0.31662682  1
  H  H201  1  0.27724465  0.08077379  0.19778893  1
  C  C202  1  0.41604608  0.27558517  0.02508362  1
  C  C203  1  0.35327438  0.28958112  0.08411441  1
  C  C204  1  0.37548910  0.30631956  0.15074846  1
  N  N205  1  0.28501710  0.25845481  0.05225009  1
  C  C206  1  0.31397095  0.06797483  0.43548160  1
  C  C207  1  0.35040667  0.10405739  0.40551975  1
  C  C208  1  0.43941362  0.28479199  0.08779133  1
  C  C209  1  0.25316543  0.36736238  0.47009344  1
  C  C210  1  0.41936430  0.30281047  0.14967139  1
  H  H211  1  0.28216487  0.36344104  0.44786131  1
  N  N212  1  0.47708092  0.31518162  0.31132074  1
  N  N213  1  0.48148578  0.27846905  0.08816865  1
  C  C214  1  0.27594764  0.25524465  0.22583655  1
  Cu  Cu215  1  0.47725944  0.05090234  0.28243126  1
  C  C216  1  0.31005750  0.27796524  0.10371234  1
  H  H217  1  0.29873684  0.27552714  0.33113577  1
  H  H218  1  0.31771765  0.11459389  0.25297133  1
  N  N219  1  0.46443394  0.01568202  0.14092221  1
  N  N220  1  0.44073079  0.01919377  0.21257232  1
  H  H221  1  0.30225382  0.39423643  0.27346667  1
  H  H222  1  0.28034716  0.47434330  0.17275079  1
  Cu  Cu223  1  0.49226533  0.05873152  0.49384054  1
  H  H224  1  0.30347390  0.47706690  0.01328711  1
  Cu  Cu225  1  0.49468272  0.10120515  0.96441407  1
  C  C226  1  0.29993478  0.37135816  0.84447939  1
  C  C227  1  0.38780769  0.18717127  0.57227352  1
  C  C228  1  0.41813367  0.15758141  0.61832589  1
  N  N229  1  0.29720272  0.18243880  0.67887289  1
  N  N230  1  0.44580034  0.13734187  0.72246014  1
  H  H231  1  0.29723294  0.46115654  0.83382258  1
  H  H232  1  0.31107657  0.03348336  0.88511422  1
  C  C233  1  0.27875157  0.26158263  0.57092164  1
  N  N234  1  0.43621217  0.27010088  0.96660896  1
  C  C235  1  0.30858389  0.12186145  0.87519606  1
  H  H236  1  0.46127867  0.39541819  0.85687591  1
  N  N237  1  0.47763451  0.09581391  0.65370516  1
  N  N238  1  0.40484978  0.25709043  0.89530709  1
  N  N239  1  0.45686483  0.11197709  0.60022871  1
  Cu  Cu240  1  0.49266769  0.30188105  0.95431125  1
  C  C241  1  0.34252534  0.19466740  0.87668438  1
  Cu  Cu242  1  0.47013920  0.13166451  0.80578920  1
  H  H243  1  0.35585897  0.14884904  0.76422295  1
  C  C244  1  0.33805162  0.18704346  0.66685663  1
  N  N245  1  0.31822321  0.25716442  0.55345292  1
  N  N246  1  0.38034026  0.16567542  0.89614524  1
  C  C247  1  0.33734628  0.32051627  0.86444642  1
  N  N248  1  0.37328160  0.36701960  0.88224872  1
  C  C249  1  0.40926747  0.15574637  0.69099974  1
  C  C250  1  0.36728471  0.16460372  0.71452706  1
  C  C251  1  0.34809212  0.21686248  0.59436652  1
  H  H252  1  0.39017837  0.49730684  0.61520605  1
  C  C253  1  0.27108085  0.17378949  0.85598727  1
  C  C254  1  0.26527192  0.29770182  0.84396195  1
  C  C255  1  0.26975161  0.21252861  0.63549945  1
  H  H256  1  0.35431148  0.27295340  0.97538578  1
  N  N257  1  0.47641804  0.01404856  0.89684760  1
  N  N258  1  0.48751432  0.35295713  0.86755934  1
  H  H259  1  0.39506228  0.18389976  0.51754183  1
  H  H260  1  0.26316527  0.42270444  0.63637334  1
  N  N261  1  0.49875358  0.25949330  0.80528581  1
  H  H262  1  0.25567695  0.48028569  0.71640877  1
  H  H263  1  0.32724173  0.27610075  0.50588177  1
  C  C264  1  0.26007525  0.91429178  0.15908203  1
  C  C265  1  0.43428649  0.72542531  0.20409758  1
  N  N266  1  0.33431367  0.61368011  0.23037615  1
  H  H267  1  0.25993220  0.76706341  0.45525511  1
  C  C268  1  0.39448897  0.68888648  0.18612673  1
  H  H269  1  0.33976797  0.72089995  0.08279893  1
  C  C270  1  0.31127902  0.59561438  0.28375176  1
  N  N271  1  0.46680687  0.74174383  0.16356356  1
  C  C272  1  0.36974014  0.66698629  0.24190329  1
  C  C273  1  0.38602869  0.69436820  0.31168918  1
  C  C274  1  0.26587062  0.89069930  0.22928860  1
  C  C275  1  0.40164427  0.96776601  0.12392619  1
  C  C276  1  0.30618481  0.70139606  0.06501165  1
  C  C277  1  0.29559149  0.62918861  0.41273539  1
  N  N278  1  0.42199855  0.89842002  0.48105008  1
  H  H279  1  0.43282541  0.77733795  0.37759805  1
  C  C280  1  0.31424268  0.97411487  0.48969950  1
  C  C281  1  0.42433403  0.75026940  0.32636601  1
  C  C282  1  0.44956837  0.76172872  0.27185204  1
  C  C283  1  0.38593879  0.94707666  0.47238951  1
  H  H284  1  0.28590626  0.77824836  0.06633408  1
  C  C285  1  0.32258964  0.63977662  0.35034293  1
  H  H286  1  0.26615388  0.80728400  0.35278484  1
  C  C287  1  0.33097104  0.93848871  0.21628405  1
  C  C288  1  0.37012288  0.97155715  0.24302096  1
  Cu  Cu289  1  0.48868600  0.91401889  0.38280332  1
  Cu  Cu290  1  0.48230880  0.72163480  0.07701632  1
  N  N291  1  0.29076781  0.92512726  0.11503593  1
  H  H292  1  0.31104100  0.80754281  0.42004917  1
  C  C293  1  0.26991128  0.55573820  0.26633399  1
  H  H294  1  0.38408597  0.68085308  0.13552882  1
  H  H295  1  0.29325046  0.63461831  0.09900686  1
  C  C296  1  0.29396983  0.74252177  0.44845104  1
  N  N297  1  0.30267273  0.90383691  0.26022441  1
  N  N298  1  0.35822552  0.68615415  0.35952737  1
  C  C299  1  0.25426719  0.59222901  0.38742093  1
  C  C300  1  0.25530377  0.52198490  0.19770583  1
  N  N301  1  0.49102025  0.80124642  0.27101863  1
  H  H302  1  0.37329853  0.99452238  0.29555083  1
  C  C303  1  0.32894014  0.92931863  0.14082006  1
  C  C304  1  0.40371197  0.98516769  0.19858828  1
  N  N305  1  0.45447521  0.98295689  0.44289421  1
  H  H306  1  0.36073980  0.95000263  0.04113831  1
  C  C307  1  0.36301067  0.94792373  0.09755308  1
  H  H308  1  0.35031491  0.57951953  0.47163323  1
  C  C309  1  0.31913250  0.54922088  0.46035645  1
  N  N310  1  0.44100824  0.97795250  0.09358712  1
  H  H311  1  0.35308568  0.54894257  0.01351424  1
  H  H312  1  0.25140345  0.60543024  0.17450543  1
  H  H313  1  0.30893488  0.74166858  0.49823996  1
  H  H314  1  0.29310813  0.88344948  0.78285407  1
  C  C315  1  0.28239482  0.63378946  0.78894085  1
  C  C316  1  0.35151950  0.65404021  0.62705945  1
  H  H317  1  0.32746235  0.51344218  0.93468784  1
  N  N318  1  0.35135995  0.73504878  0.82657357  1
  H  H319  1  0.25138049  0.52050624  0.53143462  1
  C  C320  1  0.44366163  0.94809853  0.88854459  1
  C  C321  1  0.35780149  0.78479771  0.64256175  1
  N  N322  1  0.31599980  0.61402511  0.60367930  1
  C  C323  1  0.42467936  0.63889099  0.63964447  1
  C  C324  1  0.39556002  0.83522348  0.65437429  1
  N  N325  1  0.44979518  0.65329836  0.94712166  1
  C  C326  1  0.25790477  0.82219653  0.70319184  1
  C  C327  1  0.41170993  0.93287346  0.93217621  1
  C  C328  1  0.29071721  0.77539171  0.66456975  1
  C  C329  1  0.28326036  0.65892665  0.85432040  1
  H  H330  1  0.31046904  0.65546752  0.75979154  1
  H  H331  1  0.41501668  0.76062168  0.75555778  1
  N  N332  1  0.49189573  0.64056448  0.66233273  1
  N  N333  1  0.45929090  0.65709504  0.88709900  1
  C  C334  1  0.32398839  0.71061115  0.87455775  1
  C  C335  1  0.32718635  0.73807570  0.94505035  1
  Cu  Cu336  1  0.48354030  0.91567582  0.58164073  1
  N  N337  1  0.46372406  0.57229118  0.64804921  1
  C  C338  1  0.44567921  0.88839632  0.81734048  1
  N  N339  1  0.46950631  0.76738231  0.67104623  1
  N  N340  1  0.32312867  0.83720505  0.65558779  1
  N  N341  1  0.35528211  0.81264435  0.96396398  1
  C  C342  1  0.42988251  0.75608200  0.65624835  1
  C  C343  1  0.38127556  0.84920718  0.91621782  1
  C  C344  1  0.38216172  0.80258090  0.84664767  1
  C  C345  1  0.41381986  0.81672402  0.79807681  1
  N  N346  1  0.47864451  0.90775818  0.78070189  1
  C  C347  1  0.28441302  0.66183054  0.63236721  1
  C  C348  1  0.38759010  0.58556801  0.62523413  1
  Cu  Cu349  1  0.44733566  0.77054860  0.51742079  1
  H  H350  1  0.35045034  0.85305037  0.54826470  1
  C  C351  1  0.26759939  0.91724093  0.75012768  1
  H  H352  1  0.40025848  0.92934921  0.66083953  1
  H  H353  1  0.41108553  0.97071710  0.97941561  1
  C  C354  1  0.25982001  0.65523903  0.97222763  1
  H  H355  1  0.28308413  0.98837872  0.72462468  1
  N  N356  1  0.27868091  0.92919946  0.51644537  1
  H  H357  1  0.25481915  0.60153440  0.76210664  1
  C  C358  1  0.34983690  0.91405155  0.50758167  1
  N  N359  1  0.49188896  0.68266737  0.99073228  1
  C  C360  1  0.32256973  0.54194152  0.98728609  1
  H  H361  1  0.30205784  0.53476561  0.50878145  1
  C  C362  1  0.30530130  0.66060633  0.99268897  1
  C  C363  1  0.60330768  0.04396720  0.38290854  1
  C  C364  1  0.64111200  0.03577746  0.34925918  1
  H  H365  1  0.74038477  0.02686791  0.48291347  1
  C  C366  1  0.63883094  0.03254965  0.27253229  1
  H  H367  1  0.69929687  0.34243914  0.31595291  1
  N  N368  1  0.67139652  0.04636366  0.23467546  1
  C  C369  1  0.56871585  0.43324201  0.18356587  1
  H  H370  1  0.66874027  0.36600936  0.01062640  1
  N  N371  1  0.57721434  0.12514213  0.03045264  1
  C  C372  1  0.64470977  0.35806421  0.19571391  1
  C  C373  1  0.71150904  0.04502586  0.34020761  1
  C  C374  1  0.50334345  0.43992965  0.24089808  1
  C  C375  1  0.70728582  0.05383789  0.26944022  1
  H  H376  1  0.60298047  0.02360186  0.18332712  1
  N  N377  1  0.67845957  0.04749415  0.37924003  1
  C  C378  1  0.71983393  0.40798461  0.44434904  1
  H  H379  1  0.60229076  0.04689731  0.43614743  1
  C  C380  1  0.55124724  0.29089501  0.27699272  1
  N  N381  1  0.50756550  0.14903373  0.41387007  1
  H  H382  1  0.73627607  0.19314118  0.45032338  1
  C  C383  1  0.60139841  0.03639068  0.23638935  1
  C  C384  1  0.56345092  0.03872071  0.27124853  1
  N  N385  1  0.62020674  0.30491054  0.23749176  1
  C  C386  1  0.70466589  0.46391302  0.11400383  1
  H  H387  1  0.65497475  0.22000695  0.06004878  1
  C  C388  1  0.71747556  0.40093544  0.17246073  1
  C  C389  1  0.56602079  0.05468498  0.34768387  1
  C  C390  1  0.69676125  0.27728340  0.27649209  1
  C  C391  1  0.68655388  0.34548171  0.21451186  1
  C  C392  1  0.74244180  0.07352983  0.22724920  1
  C  C393  1  0.51134463  0.33428601  0.28256966  1
  H  H394  1  0.56111759  0.22225910  0.31028995  1
  N  N395  1  0.51191639  0.27103656  0.05077286  1
  C  C396  1  0.57985163  0.33925418  0.23266226  1
  Cu  Cu397  1  0.55814926  0.21265811  0.09779860  1
  H  H398  1  0.72760634  0.22782534  0.27189315  1
  N  N399  1  0.52917457  0.05058772  0.23528786  1
  H  H400  1  0.67077048  0.21836510  0.29018797  1
  Cu  Cu401  1  0.52484172  0.04249069  0.14266188  1
  C  C402  1  0.65616585  0.45496637  0.01950031  1
  N  N403  1  0.53467355  0.10328256  0.38045250  1
  C  C404  1  0.73938964  0.10365294  0.15395691  1
  H  H405  1  0.74825996  0.36099205  0.44996777  1
  C  C406  1  0.62774314  0.43007897  0.13687410  1
  H  H407  1  0.65411927  0.24974924  0.45846383  1
  N  N408  1  0.59099545  0.46891395  0.13253518  1
  H  H409  1  0.72363731  0.03769064  0.12452246  1
  H  H410  1  0.63707908  0.37552386  0.48651750  1
  H  H411  1  0.69000948  0.36532199  0.46108220  1
  C  C412  1  0.65925497  0.48467583  0.09262025  1
  C  C413  1  0.52969069  0.49149619  0.19797397  1
  H  H414  1  0.73842395  0.25498497  0.36917677  1
  H  H415  1  0.72118953  0.18421941  0.15208793  1
  C  C416  1  0.64797871  0.18569863  0.01027499  1
  Cu  Cu417  1  0.54674583  0.08103848  0.79844600  1
  N  N418  1  0.54241496  0.02340401  0.99481131  1
  C  C419  1  0.66669269  0.13607000  0.88947546  1
  H  H420  1  0.64362789  0.12715026  0.62164631  1
  C  C421  1  0.61080010  0.13009832  0.99353908  1
  C  C422  1  0.54417138  0.41871713  0.80036395  1
  C  C423  1  0.72082812  0.22421586  0.84521528  1
  H  H424  1  0.73602328  0.06689919  0.95314506  1
  C  C425  1  0.67614073  0.18816332  0.95714533  1
  C  C426  1  0.52957744  0.30305026  0.77146881  1
  H  H427  1  0.53894226  0.18750729  0.69175353  1
  C  C428  1  0.59732018  0.43745431  0.71809128  1
  N  N429  1  0.52266831  0.44661014  0.85318258  1
  C  C430  1  0.63267630  0.06128027  0.87734218  1
  C  C431  1  0.65142406  0.44216584  0.63801049  1
  C  C432  1  0.72158369  0.42314160  0.58876853  1
  C  C433  1  0.57689101  0.48362904  0.77138249  1
  N  N434  1  0.53382281  0.04351066  0.65716719  1
  H  H435  1  0.60571702  0.25968854  0.50488504  1
  C  C436  1  0.60512997  0.05646178  0.92995960  1
  N  N437  1  0.68385369  0.17247354  0.83393087  1
  H  H438  1  0.69513506  0.11009899  0.58962110  1
  C  C439  1  0.74554775  0.25960871  0.78858156  1
  C  C440  1  0.58130701  0.32973666  0.68597980  1
  C  C441  1  0.72343885  0.26992780  0.72313749  1
  N  N442  1  0.71408123  0.23218828  0.96752083  1
  C  C443  1  0.63638215  0.33172673  0.61571987  1
  N  N444  1  0.73903578  0.24815084  0.54804221  1
  C  C445  1  0.66457859  0.27095828  0.56543515  1
  H  H446  1  0.72352145  0.18791155  0.69424522  1
  C  C447  1  0.66475423  0.14227381  0.57951293  1
  C  C448  1  0.54814974  0.26447445  0.71352848  1
  C  C449  1  0.70733539  0.30902874  0.56789022  1
  N  N450  1  0.60227069  0.28377024  0.63438635  1
  C  C451  1  0.73692586  0.24466489  0.91373602  1
  H  H452  1  0.74107804  0.33509334  0.69342028  1
  H  H453  1  0.69158793  0.30062167  0.72481916  1
  H  H454  1  0.65396565  0.08944772  0.53650397  1
  H  H455  1  0.62671214  0.01540720  0.83010012  1
  N  N456  1  0.63254525  0.48429212  0.69336490  1
  H  H457  1  0.65647636  0.00228796  0.76030881  1
  N  N458  1  0.57027388  0.01518414  0.72098980  1
  N  N459  1  0.55218367  0.01185201  0.60365368  1
  C  C460  1  0.68868953  0.49324992  0.61497422  1
  H  H461  1  0.62301584  0.45711033  0.99812708  1
  C  C462  1  0.63918133  0.28729729  0.50013003  1
  H  H463  1  0.74467136  0.55034310  0.25138041  1
  H  H464  1  0.69453440  0.59311244  0.24639709  1
  C  C465  1  0.63010928  0.67165080  0.46017040  1
  H  H466  1  0.52069285  0.56784081  0.17140749  1
  N  N467  1  0.73241302  0.51587444  0.07868076  1
  H  H468  1  0.63780225  0.65123635  0.05139717  1
  H  H469  1  0.67084892  0.65943367  0.12521202  1
  C  C470  1  0.59087007  0.81555000  0.39252808  1
  C  C471  1  0.72307132  0.51273940  0.41949652  1
  C  C472  1  0.62716261  0.74932104  0.40037692  1
  N  N473  1  0.57405735  0.85849875  0.09683600  1
  C  C474  1  0.64181487  0.88441137  0.04490225  1
  N  N475  1  0.65739699  0.58739908  0.45674441  1
  C  C476  1  0.67176690  0.83279742  0.18092411  1
  C  C477  1  0.68383121  0.87764331  0.06265239  1
  N  N478  1  0.50572798  0.78815080  0.21197852  1
  N  N479  1  0.65847291  0.75659861  0.35842068  1
  H  H480  1  0.58638709  0.87443343  0.35036377  1
  N  N481  1  0.59731373  0.80685266  0.20765323  1
  C  C482  1  0.68763135  0.68202757  0.36131165  1
  C  C483  1  0.70186251  0.84676696  0.12893453  1
  C  C484  1  0.56090378  0.80617111  0.44172054  1
  C  C485  1  0.68713661  0.59065102  0.41090707  1
  H  H486  1  0.61805521  0.62542410  0.13195174  1
  C  C487  1  0.63034107  0.83481480  0.16571069  1
  C  C488  1  0.72563887  0.63106636  0.25346553  1
  N  N489  1  0.56240766  0.82311753  0.17796163  1
  N  N490  1  0.52381536  0.84685304  0.44263747  1
  H  H491  1  0.68330015  0.80493230  0.23291968  1
  H  H492  1  0.73477977  0.68632301  0.20887952  1
  C  C493  1  0.61389218  0.86210441  0.09633262  1
  C  C494  1  0.64652541  0.61108809  0.10051063  1
  N  N495  1  0.74247193  0.82631381  0.13102693  1
  C  C496  1  0.73752831  0.82776738  0.30535954  1
  N  N497  1  0.70775396  0.89372008  0.01019607  1
  C  C498  1  0.72867644  0.69975414  0.32045526  1
  H  H499  1  0.71372962  0.71776222  0.47527881  1
  H  H500  1  0.71064776  0.70677425  0.02928241  1
  Cu  Cu501  1  0.52982501  0.88480109  0.04393558  1
  H  H502  1  0.58066077  0.69212529  0.01124534  1
  H  H503  1  0.74387544  0.90276086  0.42651516  1
  H  H504  1  0.70866721  0.87335207  0.30009011  1
  H  H505  1  0.65491537  0.52433801  0.49289314  1
  C  C506  1  0.74861731  0.88991488  0.01941368  1
  C  C507  1  0.74791007  0.74000764  0.48308582  1
  C  C508  1  0.66244021  0.93100067  0.59030325  1
  H  H509  1  0.73274116  0.61895392  0.64579507  1
  C  C510  1  0.64613772  0.95889182  0.71481408  1
  C  C511  1  0.63266513  0.70415259  0.88897354  1
  C  C512  1  0.50405056  0.67682200  0.87891394  1
  C  C513  1  0.52248936  0.68634561  0.94818567  1
  C  C514  1  0.69848300  0.89211759  0.83385835  1
  C  C515  1  0.62039182  0.94485752  0.56653395  1
  N  N516  1  0.57213144  0.99145913  0.92544783  1
  C  C517  1  0.60137474  0.66133744  0.51488598  1
  C  C518  1  0.57087072  0.70796375  0.83073362  1
  C  C519  1  0.59325229  0.97224827  0.61779309  1
  H  H520  1  0.61020382  0.93296573  0.51501065  1
  C  C521  1  0.56577771  0.69602164  0.96200196  1
  C  C522  1  0.63672639  0.74618595  0.82062388  1
  C  C523  1  0.72949089  0.87831156  0.57180920  1
  C  C524  1  0.70016742  0.61502855  0.62740364  1
  C  C525  1  0.70017945  0.66855818  0.91820358  1
  N  N526  1  0.60078921  0.74202928  0.78921871  1
  C  C527  1  0.72110016  0.65205667  0.85392953  1
  N  N528  1  0.53275320  0.72761170  0.54270336  1
  C  C529  1  0.71023940  0.71313293  0.79305386  1
  H  H530  1  0.60625950  0.61143277  0.56067210  1
  H  H531  1  0.63121668  0.91831352  0.99780370  1
  H  H532  1  0.58853795  0.56366307  0.79252085  1
  H  H533  1  0.62605841  0.78096767  0.71000866  1
  N  N534  1  0.66247399  0.69273686  0.93500977  1
  C  C535  1  0.67565092  0.79825023  0.78875431  1
  C  C536  1  0.58714816  0.70286547  0.90101647  1
  C  C537  1  0.52702230  0.69062468  0.82198767  1
  H  H538  1  0.67747703  0.80837948  0.68054227  1
  N  N539  1  0.73354799  0.70573779  0.74026352  1
  H  H540  1  0.69907490  0.66415669  0.57831833  1
  H  H541  1  0.67911174  0.65272544  0.66513271  1
  N  N542  1  0.50858355  0.97752052  0.83263620  1
  Cu  Cu543  1  0.54756581  0.89097694  0.86684674  1
  C  C544  1  0.65557127  0.82956644  0.71934977  1
  N  N545  1  0.69018633  0.88476903  0.54833098  1
  H  H546  1  0.51447726  0.67392620  0.77443945  1
  H  H547  1  0.68118516  0.86456346  0.50115613  1
  H  H548  1  0.64639423  0.55446639  0.71811913  1
  H  H549  1  0.73314078  0.90001803  0.82169251  1
  H  H550  1  0.68408326  0.97952329  0.82605547  1
  C  C551  1  0.67954901  0.97349365  0.65476133  1
  N  N552  1  0.71735351  0.98560105  0.67702570  1
  C  C553  1  0.60309728  0.98213698  0.68930018  1
  H  H554  1  0.69768619  0.86612695  0.88740031  1
  Cu  Cu555  1  0.50346879  0.87634312  0.70059078  1
  C  C556  1  0.72524352  0.66991126  0.98344301  1
  C  C557  1  0.74197194  0.93166842  0.63337001  1
  C  C558  1  0.56588989  0.72688389  0.50633709  1
  H  H559  1  0.73875317  0.58406259  0.99567850  1
  N  N560  1  0.50334851  0.80450476  0.51914926  1
  H  H561  1  0.67539957  0.51114758  0.98805448  1
  C  C562  1  0.90041363  0.03519211  0.33834034  1
  N  N563  1  0.98961917  0.07673382  0.23537847  1
  Cu  Cu564  1  0.93967068  0.32501584  0.15284486  1
  Cu  Cu565  1  0.95950222  0.27270369  0.41829172  1
  N  N566  1  0.93487924  0.39329747  0.37369659  1
  C  C567  1  0.78465090  0.42856340  0.15609002  1
  H  H568  1  0.77045361  0.12238217  0.13348493  1
  C  C569  1  0.85899913  0.05860865  0.31807551  1
  H  H570  1  0.87180559  0.40238888  0.46019001  1
  N  N571  1  0.82534944  0.02344204  0.35411770  1
  C  C572  1  0.82595839  0.40484869  0.17339296  1
  C  C573  1  0.86944689  0.45742174  0.41603809  1
  N  N574  1  0.81396877  0.13789570  0.23065017  1
  Cu  Cu575  1  0.97801046  0.29144174  0.26364098  1
  N  N576  1  0.98716378  0.15789824  0.45699447  1
  N  N577  1  0.96383865  0.42249767  0.30818040  1
  Cu  Cu578  1  0.99006577  0.44695896  0.46490046  1
  C  C579  1  0.84208102  0.48437068  0.05724033  1
  C  C580  1  0.93127831  0.05349002  0.29014524  1
  C  C581  1  0.92359665  0.11376848  0.22383971  1
  C  C582  1  0.78143702  0.08509589  0.26039455  1
  C  C583  1  0.78957876  0.05425423  0.33139057  1
  C  C584  1  0.85428708  0.42353869  0.12225663  1
  H  H585  1  0.87620232  0.19474853  0.15884230  1
  C  C586  1  0.85350345  0.11775596  0.25166320  1
  H  H587  1  0.83707133  0.36503910  0.21866623  1
  H  H588  1  0.78818952  0.25981742  0.03759166  1
  C  C589  1  0.88443175  0.15121768  0.20616290  1
  N  N590  1  0.89436446  0.39449584  0.11865519  1
  H  H591  1  0.80998820  0.18082181  0.18727621  1
  N  N592  1  0.90906254  0.45668113  0.04435906  1
  N  N593  1  0.96072476  0.12467199  0.19527687  1
  C  C594  1  0.90311722  0.45775881  0.37162020  1
  C  C595  1  0.77171434  0.48679106  0.09204368  1
  N  N596  1  0.87586766  0.49230861  0.01397865  1
  H  H597  1  0.78544612  0.21761666  0.41559558  1
  N  N598  1  0.97349929  0.03896717  0.29372999  1
  N  N599  1  0.75612203  0.38454240  0.19548192  1
  C  C600  1  0.75242207  0.18825783  0.40193980  1
  C  C601  1  0.75293463  0.06603391  0.37491265  1
  H  H602  1  0.82953726  0.01057806  0.08316066  1
  N  N603  1  0.79642184  0.48494514  0.41729939  1
  N  N604  1  0.95523344  0.06298939  0.49310040  1
  H  H605  1  0.86516520  0.25411560  0.64886265  1
  H  H606  1  0.77508582  0.11426832  0.59775587  1
  N  N607  1  0.90103382  0.39292700  0.57488790  1
  Cu  Cu608  1  0.96780748  0.23184598  0.58384465  1
  H  H609  1  0.81196613  0.43999960  0.94331333  1
  C  C610  1  0.80260520  0.23365133  0.98919749  1
  H  H611  1  0.92323870  0.14057822  0.88332472  1
  C  C612  1  0.77883903  0.40656561  0.93619085  1
  C  C613  1  0.86073974  0.38162560  0.56519642  1
  N  N614  1  0.97566745  0.13658409  0.77378901  1
  H  H615  1  0.79012739  0.13141461  0.68095137  1
  H  H616  1  0.89276066  0.40400895  0.76240133  1
  H  H617  1  0.80847946  0.13446633  0.51046308  1
  N  N618  1  0.81260051  0.25807211  0.74506879  1
  N  N619  1  0.98954706  0.14799334  0.71549596  1
  H  H620  1  0.98847831  0.37126459  0.79646297  1
  N  N621  1  0.98994546  0.37533978  0.59717101  1
  H  H622  1  0.77821459  0.05782678  0.88736609  1
  C  C623  1  0.86483591  0.19199633  0.82420807  1
  C  C624  1  0.93167150  0.15990913  0.77952688  1
  C  C625  1  0.78895713  0.26407501  0.79929968  1
  N  N626  1  0.91973039  0.27571462  0.54324867  1
  C  C627  1  0.82813440  0.45290634  0.58655103  1
  C  C628  1  0.87540581  0.22718005  0.69627680  1
  N  N629  1  0.88748061  0.20800036  0.53150544  1
  H  H630  1  0.76279823  0.41193079  0.98846503  1
  C  C631  1  0.91697688  0.19638492  0.70914658  1
  N  N632  1  0.95611057  0.40652742  0.92618322  1
  C  C633  1  0.81147283  0.22384352  0.52654744  1
  C  C634  1  0.85028951  0.22658388  0.75270992  1
  C  C635  1  0.78097712  0.27773084  0.92754041  1
  C  C636  1  0.80694396  0.24669780  0.86686431  1
  N  N637  1  0.84591650  0.21912758  0.87849528  1
  C  C638  1  0.77704508  0.28586396  0.54948358  1
  C  C639  1  0.90750107  0.15439241  0.83377852  1
  C  C640  1  0.85176179  0.26357900  0.53693601  1
  H  H641  1  0.82856368  0.09505302  0.61728917  1
  C  C642  1  0.79709321  0.08220113  0.63544946  1
  N  N643  1  0.94771214  0.19447150  0.66902709  1
  C  C644  1  0.78929978  0.40239332  0.57784745  1
  N  N645  1  0.95426189  0.40796986  0.99102429  1
  H  H646  1  0.76217290  0.45710759  0.89540281  1
  Cu  Cu647  1  0.93985292  0.47500864  0.62182065  1
  N  N648  1  0.75768959  0.46933279  0.59537837  1
  C  C649  1  0.99344480  0.35905772  0.90656020  1
  H  H650  1  0.81922754  0.43733684  0.83636862  1
  H  H651  1  0.80709345  0.13900827  0.98960155  1
  C  C652  1  0.76254150  0.01915005  0.93050680  1
  H  H653  1  0.79723022  0.00470031  0.75108305  1
  N  N654  1  0.88327409  0.48455180  0.75025539  1
  H  H655  1  0.83623964  0.26949326  0.99075865  1
  N  N656  1  0.82792678  0.82066586  0.48082739  1
  N  N657  1  0.87670428  0.79940071  0.04093752  1
  H  H658  1  0.75996605  0.86852082  0.34287630  1
  N  N659  1  0.95916019  0.67354591  0.42420383  1
  Cu  Cu660  1  0.94841838  0.53841285  0.17794954  1
  C  C661  1  0.89466475  0.77641876  0.44174235  1
  H  H662  1  0.85311745  0.71630277  0.14869332  1
  C  C663  1  0.86936586  0.60292808  0.29277052  1
  H  H664  1  0.86124032  0.93313933  0.13962148  1
  N  N665  1  0.99415343  0.61163891  0.47037660  1
  H  H666  1  0.80189863  0.66330467  0.13135245  1
  C  C667  1  0.83702899  0.81362373  0.03200352  1
  C  C668  1  0.81258248  0.83353884  0.09501389  1
  H  H669  1  0.88347992  0.76784574  0.38941631  1
  H  H670  1  0.77231708  0.69752494  0.45695438  1
  C  C671  1  0.90218714  0.52861019  0.30752773  1
  H  H672  1  0.79375125  0.58038854  0.00297939  1
  N  N673  1  0.80341811  0.66277990  0.31714696  1
  C  C674  1  0.82911188  0.94603497  0.12315263  1
  Cu  Cu675  1  0.97884332  0.67675857  0.33584083  1
  C  C676  1  0.76716215  0.85169318  0.08140121  1
  H  H677  1  0.81011061  0.75663087  0.19772272  1
  C  C678  1  0.93065332  0.72116182  0.45791393  1
  H  H679  1  0.81217488  0.97600631  0.16606729  1
  C  C680  1  0.76744259  0.63908234  0.34776174  1
  C  C681  1  0.76573195  0.54606243  0.39223886  1
  H  H682  1  0.87364572  0.66350167  0.25133918  1
  C  C683  1  0.81993064  0.73822003  0.14553995  1
  C  C684  1  0.83451575  0.60218781  0.33493482  1
  N  N685  1  0.98581595  0.66259039  0.18694177  1
  N  N686  1  0.93399666  0.51009694  0.26807372  1
  H  H687  1  0.96142882  0.79964142  0.02019309  1
  C  C688  1  0.80248547  0.52105962  0.04455701  1
  C  C689  1  0.75558078  0.99241412  0.43706117  1
  C  C690  1  0.83270226  0.50885903  0.39081910  1
  H  H691  1  0.75481886  0.84174502  0.25807742  1
  H  H692  1  0.90845509  0.99358779  0.38581047  1
  Cu  Cu693  1  0.99770630  0.60689385  0.05492886  1
  H  H694  1  0.78996334  0.98687286  0.44818751  1
  C  C695  1  0.86838018  0.81816646  0.49252096  1
  N  N696  1  0.94501515  0.73900586  0.79778650  1
  C  C697  1  0.77622428  0.56915033  0.80140316  1
  H  H698  1  0.83163979  0.53733907  0.60460327  1
  N  N699  1  0.79613183  0.83520153  0.92216740  1
  N  N700  1  0.85866118  0.90155067  0.61098462  1
  N  N701  1  0.90099768  0.54883928  0.68027550  1
  C  C702  1  0.92758808  0.74324444  0.85636557  1
  H  H703  1  0.86360611  0.73539370  0.82319650  1
  C  C704  1  0.75824489  0.81504863  0.53002219  1
  C  C705  1  0.77282205  0.91656719  0.95654947  1
  C  C706  1  0.81930879  0.89863620  0.59342815  1
  C  C707  1  0.78941133  0.95229761  0.64390415  1
  N  N708  1  0.97975702  0.65761602  0.54557020  1
  C  C709  1  0.83754117  0.61926846  0.70480047  1
  N  N710  1  0.87164178  0.61861042  0.66175522  1
  H  H711  1  0.77373152  0.87439179  0.74092560  1
  C  C712  1  0.80034618  0.67422760  0.69545484  1
  H  H713  1  0.82691254  0.88303082  0.73141919  1
  C  C714  1  0.94562255  0.71496898  0.53634104  1
  C  C715  1  0.88222806  0.84109265  0.56737338  1
  C  C716  1  0.81356365  0.50612553  0.80170191  1
  C  C717  1  0.86785114  0.77435334  0.92728292  1
  H  H718  1  0.79671630  0.72758631  0.65040798  1
  C  C719  1  0.82802061  0.80867899  0.95829224  1
  C  C720  1  0.84506997  0.52874722  0.75489111  1
  C  C721  1  0.91883143  0.78112007  0.57041728  1
  C  C722  1  0.79782637  0.92767766  0.72123007  1
  C  C723  1  0.94169783  0.78800594  0.97582314  1
  N  N724  1  0.98945368  0.78392218  0.68653560  1
  C  C725  1  0.95733663  0.76588306  0.91392908  1
  Cu  Cu726  1  0.94037001  0.70624506  0.70524721  1
  C  C727  1  0.88320237  0.74788392  0.86499872  1
  C  C728  1  0.80447472  0.85354081  0.53247249  1
  C  C729  1  0.76940706  0.64970133  0.74304342  1
  H  H730  1  0.75370862  0.72567139  0.97105611  1
  N  N731  1  0.97710186  0.98648261  0.51860100  1
  N  N732  1  0.75033132  0.57337167  0.85298834  1
  N  N733  1  0.99806275  0.73919801  0.90795171  1
  Cu  Cu734  1  0.99920907  0.77883025  0.78004617  1
  C  C735  1  0.89804339  0.79081869  0.98370884  1
