# generated using pymatgen
data_ZnH4(CN5)2
_symmetry_space_group_name_H-M   'P 1'
_cell_length_a   18.10531444
_cell_length_b   20.11342136
_cell_length_c   12.17200690
_cell_angle_alpha   90.00000000
_cell_angle_beta   90.00000000
_cell_angle_gamma   90.00000000
_symmetry_Int_Tables_number   1
_chemical_formula_structural   ZnH4(CN5)2
_chemical_formula_sum   'Zn16 H64 C32 N160'
_cell_volume   4432.55581972
_cell_formula_units_Z   16
loop_
 _symmetry_equiv_pos_site_id
 _symmetry_equiv_pos_as_xyz
  1  'x, y, z'
loop_
 _atom_site_type_symbol
 _atom_site_label
 _atom_site_symmetry_multiplicity
 _atom_site_fract_x
 _atom_site_fract_y
 _atom_site_fract_z
 _atom_site_occupancy
  N  N0  1  0.46555131  0.04816641  0.31134307  1
  N  N1  1  0.38867987  0.17690727  0.41099292  1
  N  N2  1  0.27842825  0.11779041  0.35240509  1
  H  H3  1  0.42575579  0.01871766  0.28034890  1
  Zn  Zn4  1  0.48846616  0.21895724  0.36812924  1
  H  H5  1  0.43684169  0.07965947  0.36255213  1
  N  N6  1  0.05314814  0.18878822  0.15947089  1
  N  N7  1  0.32147948  0.15661859  0.31024825  1
  N  N8  1  0.09285900  0.16783364  0.34696808  1
  C  C9  1  0.05258475  0.15320472  0.25067372  1
  H  H10  1  0.13619998  0.20212941  0.35352020  1
  H  H11  1  0.09198784  0.14237278  0.41917208  1
  N  N12  1  0.00489021  0.10250704  0.24089805  1
  N  N13  1  0.01523347  0.13319394  0.05587125  1
  H  H14  1  0.18772147  0.18046296  0.04204662  1
  N  N15  1  0.31446311  0.10378372  0.48372876  1
  C  C16  1  0.37755997  0.13775883  0.49369671  1
  N  N17  1  0.29279095  0.11814583  0.75367836  1
  H  H18  1  0.19939471  0.19279357  0.65426375  1
  C  C19  1  0.28646925  0.18257028  0.76622040  1
  N  N20  1  0.36020885  0.09374847  0.84852989  1
  Zn  Zn21  1  0.25749440  0.06187177  0.61878769  1
  N  N22  1  0.37984812  0.14465150  0.89581802  1
  N  N23  1  0.14709852  0.06552313  0.58623082  1
  N  N24  1  0.33266236  0.21148509  0.83503582  1
  N  N25  1  0.09294358  0.12735303  0.64722979  1
  H  H26  1  0.40123257  0.11576110  0.66811270  1
  C  C27  1  0.10814655  0.03854300  0.50916244  1
  N  N28  1  0.03239916  0.12378241  0.60467249  1
  H  H29  1  0.24818302  0.19991941  0.94611231  1
  N  N30  1  0.42113840  0.13236373  0.59014192  1
  H  H31  1  0.45843369  0.16875574  0.59418598  1
  N  N32  1  0.22912591  0.21821438  0.70990966  1
  H  H33  1  0.27650369  0.02751262  0.84501304  1
  N  N34  1  0.20906675  0.21921314  0.99814381  1
  N  N35  1  0.04167759  0.06446293  0.50031316  1
  H  H36  1  0.08480765  0.44494582  0.39765468  1
  Zn  Zn37  1  0.07736467  0.28853512  0.15089673  1
  N  N38  1  0.18128275  0.31161936  0.11446226  1
  N  N39  1  0.49434368  0.31702301  0.34790531  1
  N  N40  1  0.26906643  0.40090395  0.08134350  1
  N  N41  1  0.21768971  0.39207371  0.14400419  1
  H  H42  1  0.42631120  0.35835798  0.17879233  1
  N  N43  1  0.41889597  0.34098344  0.10105324  1
  N  N44  1  0.42238243  0.37211083  0.37878213  1
  N  N45  1  0.10440052  0.46334349  0.47349726  1
  N  N46  1  0.43344631  0.42304968  0.32587451  1
  H  H47  1  0.37686630  0.30897839  0.09517974  1
  C  C48  1  0.22361978  0.28525863  0.04162774  1
  N  N49  1  0.03106129  0.35203807  0.26634017  1
  C  C50  1  0.01995529  0.41834045  0.25505087  1
  H  H51  1  0.09587828  0.43360518  0.12405990  1
  N  N52  1  0.06187304  0.45764167  0.17743595  1
  N  N53  1  0.00364404  0.33292996  0.04317827  1
  C  C54  1  0.44158792  0.38442179  0.01144591  1
  N  N55  1  0.48038019  0.43868682  0.01609980  1
  Zn  Zn56  1  0.33632612  0.30874733  0.86565497  1
  H  H57  1  0.26841288  0.43519903  0.91264758  1
  N  N58  1  0.25448539  0.39136569  0.55498883  1
  C  C59  1  0.26032809  0.42718080  0.74923815  1
  H  H60  1  0.24812177  0.25751357  0.66708849  1
  N  N61  1  0.45130117  0.43845879  0.82218137  1
  N  N62  1  0.28034232  0.34168174  0.59491245  1
  N  N63  1  0.24246667  0.45817559  0.85226910  1
  N  N64  1  0.28516289  0.36495054  0.73751488  1
  N  N65  1  0.42479768  0.36784526  0.91250052  1
  N  N66  1  0.24620989  0.45389345  0.65626755  1
  N  N67  1  0.01483262  0.40555564  0.96389995  1
  N  N68  1  0.26928023  0.32872723  0.99536961  1
  H  H69  1  0.15229389  0.44363151  0.50205469  1
  N  N70  1  0.48731392  0.47577539  0.87834101  1
  N  N71  1  0.23232167  0.63526069  0.38392381  1
  N  N72  1  0.41569882  0.56041868  0.27531839  1
  N  N73  1  0.35784249  0.67392070  0.42065448  1
  N  N74  1  0.27722812  0.67253872  0.33753202  1
  N  N75  1  0.04797878  0.69158360  0.15633283  1
  Zn  Zn76  1  0.46220127  0.71490186  0.38981275  1
  H  H77  1  0.02342681  0.66592343  0.41658868  1
  H  H78  1  0.40008584  0.51265452  0.26303125  1
  H  H79  1  0.37882861  0.57924192  0.33260531  1
  N  N80  1  0.02629321  0.55932263  0.47603622  1
  C  C81  1  0.03347816  0.65918101  0.24779344  1
  N  N82  1  0.04527644  0.69053236  0.35317954  1
  H  H83  1  0.03212353  0.74215371  0.36245761  1
  C  C84  1  0.47621375  0.59562234  0.23283320  1
  H  H85  1  0.16748119  0.68152640  0.03576989  1
  N  N86  1  0.03542848  0.63925771  0.04694206  1
  H  H87  1  0.04778116  0.50634643  0.16053919  1
  N  N88  1  0.49520543  0.65744431  0.26152519  1
  N  N89  1  0.00134823  0.59237893  0.08550256  1
  N  N90  1  0.40247256  0.61622249  0.57463110  1
  N  N91  1  0.32773564  0.58452655  0.85867267  1
  C  C92  1  0.08165808  0.52580656  0.51508723  1
  N  N93  1  0.06547004  0.62787577  0.63582726  1
  N  N94  1  0.11770651  0.55831899  0.59600194  1
  N  N95  1  0.27850471  0.61060802  0.74201083  1
  Zn  Zn96  1  0.22754228  0.55580076  0.63119661  1
  C  C97  1  0.28186867  0.67598828  0.74054244  1
  N  N98  1  0.34900399  0.63548724  0.90284545  1
  H  H99  1  0.44893123  0.64519310  0.58210785  1
  H  H100  1  0.38836704  0.61137613  0.65606088  1
  H  H101  1  0.21128960  0.69254551  0.59829158  1
  H  H102  1  0.22170234  0.50494685  0.86239562  1
  N  N103  1  0.31997732  0.70324463  0.82002973  1
  H  H104  1  0.23689291  0.69653234  0.94992515  1
  N  N105  1  0.23888859  0.71515504  0.66623300  1
  N  N106  1  0.01652543  0.62833312  0.56708131  1
  N  N107  1  0.19878515  0.71876194  0.99846888  1
  N  N108  1  0.27562384  0.61538296  0.51061678  1
  C  C109  1  0.34075118  0.63583008  0.50494547  1
  N  N110  1  0.17396235  0.81529830  0.10834118  1
  N  N111  1  0.21397087  0.89137115  0.13472126  1
  Zn  Zn112  1  0.06546232  0.79659449  0.14160333  1
  N  N113  1  0.40267870  0.90891481  0.28265653  1
  H  H114  1  0.09776441  0.95519356  0.39954374  1
  C  C115  1  0.21659187  0.78432777  0.03379179  1
  N  N116  1  0.42640376  0.83485492  0.06340543  1
  H  H117  1  0.37924288  0.80774106  0.05744620  1
  N  N118  1  0.26868840  0.89604747  0.07545333  1
  H  H119  1  0.42226392  0.85039488  0.14212327  1
  N  N120  1  0.38670427  0.85738111  0.33055537  1
  N  N121  1  0.46233280  0.80469180  0.32114558  1
  N  N122  1  0.02117461  0.85029193  0.26647750  1
  H  H123  1  0.01637776  0.99320904  0.14941787  1
  N  N124  1  0.13716980  0.99008744  0.43457810  1
  N  N125  1  0.49431104  0.90034908  0.24214657  1
  H  H126  1  0.02753629  0.92598663  0.09007287  1
  C  C127  1  0.01662483  0.91714014  0.25981850  1
  N  N128  1  0.04180445  0.95242668  0.15946627  1
  H  H129  1  0.18141015  0.96273605  0.46342258  1
  Zn  Zn130  1  0.32365230  0.80824939  0.85231409  1
  N  N131  1  0.28934973  0.87084929  0.72964101  1
  N  N132  1  0.26055041  0.90496096  0.54314384  1
  C  C133  1  0.28263214  0.93701197  0.74078696  1
  N  N134  1  0.27680666  0.85261122  0.58658057  1
  N  N135  1  0.47647326  0.91172606  0.77941270  1
  N  N136  1  0.28287263  0.97333146  0.83934414  1
  H  H137  1  0.25661125  0.76156352  0.63844324  1
  H  H138  1  0.28619462  0.95312769  0.91465201  1
  N  N139  1  0.26453774  0.96437943  0.64735528  1
  N  N140  1  0.42518396  0.86005558  0.87345039  1
  N  N141  1  0.00892837  0.89866778  0.93547369  1
  N  N142  1  0.26820964  0.82334111  0.99486557  1
  C  C143  1  0.44473115  0.87836058  0.97268018  1
  N  N144  1  0.49299933  0.92602963  0.97456656  1
  H  H145  1  0.93810768  0.21533257  0.11144193  1
  N  N146  1  0.59298434  0.17243540  0.13939745  1
  H  H147  1  0.66364282  0.06700936  0.44153934  1
  N  N148  1  0.86200246  0.07206649  0.41853419  1
  H  H149  1  0.60970500  0.10015365  0.34719959  1
  N  N150  1  0.59776797  0.12090653  0.08660785  1
  N  N151  1  0.82102610  0.14573509  0.38323911  1
  N  N152  1  0.61488529  0.09399505  0.43420754  1
  N  N153  1  0.54330425  0.06018823  0.15040390  1
  Zn  Zn154  1  0.96926748  0.04270910  0.37453622  1
  N  N155  1  0.76939335  0.15308247  0.44812307  1
  N  N156  1  0.53666853  0.14918739  0.25692535  1
  H  H157  1  0.86305137  0.22999347  0.03790188  1
  N  N158  1  0.98131857  0.09056957  0.10527740  1
  C  C159  1  0.51302505  0.08580395  0.23994464  1
  Zn  Zn160  1  0.70297169  0.07840051  0.67249592  1
  N  N161  1  0.75453427  0.13766101  0.78677475  1
  H  H162  1  0.73550857  0.20889407  0.60192254  1
  N  N163  1  0.61565538  0.12980387  0.62013176  1
  H  H164  1  0.71595484  0.02897297  0.90666889  1
  C  C165  1  0.76087920  0.20361193  0.77367012  1
  N  N166  1  0.74900278  0.23399289  0.67073121  1
  N  N167  1  0.76548157  0.12194834  0.92678953  1
  N  N168  1  0.53868533  0.22491511  0.63052220  1
  N  N169  1  0.57752860  0.19481619  0.69669040  1
  N  N170  1  0.78290982  0.17393471  0.97283361  1
  N  N171  1  0.78177833  0.23423693  0.86956438  1
  N  N172  1  0.77583763  0.08622898  0.53855442  1
  C  C173  1  0.59130763  0.13768343  0.51875571  1
  C  C174  1  0.82682652  0.04465058  0.50137560  1
  N  N175  1  0.54795352  0.18994144  0.50549738  1
  N  N176  1  0.73485686  0.36748673  0.01523276  1
  Zn  Zn177  1  0.54610552  0.46802706  0.13823298  1
  H  H178  1  0.65534653  0.35677134  0.23721844  1
  N  N179  1  0.61792805  0.32525649  0.27086054  1
  N  N180  1  0.65032495  0.43145424  0.09416779  1
  N  N181  1  0.72918963  0.43422081  0.17764941  1
  N  N182  1  0.77761565  0.40350911  0.13183129  1
  C  C183  1  0.54557699  0.35111885  0.29204178  1
  N  N184  1  0.95533666  0.37401446  0.42227897  1
  N  N185  1  0.51771760  0.41012570  0.26507060  1
  N  N186  1  0.97568007  0.44173344  0.33104781  1
  H  H187  1  0.64593572  0.29094507  0.31811990  1
  N  N188  1  0.90713160  0.25167446  0.07173202  1
  C  C189  1  0.93839860  0.30809628  0.01858425  1
  N  N190  1  0.98241554  0.32507238  0.37811190  1
  C  C191  1  0.66824427  0.39499964  0.01164701  1
  Zn  Zn192  1  0.80066626  0.32968160  0.89048631  1
  N  N193  1  0.68997964  0.36809895  0.67534101  1
  N  N194  1  0.79903891  0.49598256  0.85274028  1
  N  N195  1  0.61601327  0.38061636  0.92503670  1
  N  N196  1  0.75986759  0.38933811  0.77143550  1
  H  H197  1  0.81468481  0.47418190  0.92255737  1
  N  N198  1  0.71779130  0.48123008  0.69839479  1
  N  N199  1  0.66960567  0.41890576  0.63104115  1
  H  H200  1  0.57142633  0.41018838  0.91101814  1
  H  H201  1  0.63955822  0.37309827  0.84799712  1
  N  N202  1  0.89975452  0.34584110  0.95093049  1
  N  N203  1  0.95578230  0.41300382  0.91779399  1
  C  C204  1  0.75979470  0.45524611  0.77468571  1
  H  H205  1  0.80743288  0.46108901  0.59176072  1
  N  N206  1  0.84583041  0.48904804  0.54910412  1
  H  H207  1  0.74425136  0.28638481  0.67219052  1
  H  H208  1  0.88110675  0.45164752  0.51410646  1
  N  N209  1  0.84745588  0.56346749  0.39203085  1
  H  H210  1  0.65853964  0.59451361  0.42112853  1
  N  N211  1  0.57324769  0.67861263  0.18593377  1
  N  N212  1  0.99814214  0.60417822  0.22782386  1
  H  H213  1  0.95030938  0.70558941  0.04467413  1
  Zn  Zn214  1  0.95675367  0.54285927  0.34621440  1
  N  N215  1  0.75404208  0.64628229  0.41361410  1
  H  H216  1  0.57771214  0.61738871  0.35921112  1
  N  N217  1  0.79854801  0.63316204  0.34228820  1
  N  N218  1  0.60642098  0.60892084  0.43290771  1
  N  N219  1  0.59196180  0.62713935  0.13848180  1
  N  N220  1  0.52653776  0.56627604  0.17093070  1
  C  C221  1  0.81828065  0.54549982  0.48826093  1
  N  N222  1  0.90604172  0.73768495  0.03326076  1
  C  C223  1  0.78715151  0.68886535  0.77521073  1
  N  N224  1  0.61772775  0.64571526  0.61870337  1
  N  N225  1  0.73091889  0.61994605  0.92689431  1
  N  N226  1  0.81716359  0.71368198  0.67640312  1
  N  N227  1  0.57067487  0.70205316  0.70941494  1
  N  N228  1  0.75115333  0.63181938  0.78514019  1
  Zn  Zn229  1  0.70463671  0.58081144  0.66167908  1
  H  H230  1  0.79282223  0.54385228  0.86854210  1
  N  N231  1  0.53441595  0.69575144  0.52519180  1
  H  H232  1  0.81166577  0.68875287  0.60890837  1
  C  C233  1  0.58933118  0.65401179  0.52009884  1
  N  N234  1  0.78323963  0.72439534  0.86658832  1
  N  N235  1  0.74325303  0.67322903  0.96965042  1
  N  N236  1  0.52713815  0.73343293  0.65413781  1
  N  N237  1  0.76336017  0.58293924  0.52031608  1
  H  H238  1  0.86721788  0.70776606  0.99852943  1
  N  N239  1  0.64544789  0.91406302  0.10578646  1
  H  H240  1  0.59770703  0.76537183  0.26167157  1
  C  C241  1  0.51567433  0.84097184  0.27565158  1
  N  N242  1  0.58857358  0.81566329  0.26228553  1
  N  N243  1  0.77392973  0.90092369  0.12834011  1
  Zn  Zn244  1  0.54494225  0.95920207  0.12657924  1
  N  N245  1  0.72637513  0.93715665  0.16704075  1
  H  H246  1  0.62310608  0.84181407  0.21480106  1
  N  N247  1  0.73113940  0.85033487  0.03218245  1
  N  N248  1  0.99529137  0.82614146  0.01473198  1
  C  C249  1  0.65996992  0.86202392  0.04007698  1
  N  N250  1  0.98514360  0.94525368  0.34375949  1
  N  N251  1  0.97125498  0.88479211  0.44321303  1
  N  N252  1  0.99668865  0.83367770  0.40214832  1
  H  H253  1  0.54977907  0.82947763  0.02235389  1
  Zn  Zn254  1  0.78717363  0.82501730  0.88591816  1
  N  N255  1  0.73283923  0.88337741  0.77385723  1
  H  H256  1  0.73257125  0.95514270  0.96153535  1
  H  H257  1  0.80982905  0.95795123  0.59301287  1
  N  N258  1  0.71060697  0.86537290  0.63791610  1
  N  N259  1  0.84972549  0.98626983  0.55882709  1
  N  N260  1  0.89256484  0.83556343  0.91848067  1
  N  N261  1  0.69652799  0.91727364  0.59021334  1
  C  C262  1  0.72026020  0.94729156  0.78512726  1
  N  N263  1  0.95051247  0.90651253  0.88863673  1
  N  N264  1  0.50917754  0.95060415  0.83989077  1
  N  N265  1  0.70763546  0.97767217  0.69061885  1
  C  C266  1  0.93217703  0.79762409  0.98359077  1
  H  H267  1  0.83957080  0.76157923  0.65927886  1
  H  H268  1  0.87879665  0.94720428  0.51948373  1
  N  N269  1  0.73006474  0.98083726  0.88949780  1
  H  H270  1  0.60337671  0.77871490  0.95424110  1
  N  N271  1  0.60428322  0.82576692  0.98664129  1
