# generated using pymatgen
data_CuH9C21NO8
_symmetry_space_group_name_H-M   'P 1'
_cell_length_a   12.75245224
_cell_length_b   14.29142063
_cell_length_c   40.84095637
_cell_angle_alpha   90.00000000
_cell_angle_beta   90.00000000
_cell_angle_gamma   90.00000000
_symmetry_Int_Tables_number   1
_chemical_formula_structural   CuH9C21NO8
_chemical_formula_sum   'Cu12 H108 C252 N12 O96'
_cell_volume   7443.29121124
_cell_formula_units_Z   12
loop_
 _symmetry_equiv_pos_site_id
 _symmetry_equiv_pos_as_xyz
  1  'x, y, z'
loop_
 _atom_site_type_symbol
 _atom_site_label
 _atom_site_symmetry_multiplicity
 _atom_site_fract_x
 _atom_site_fract_y
 _atom_site_fract_z
 _atom_site_occupancy
  O  O0  1  0.09415445  0.27682543  0.07925084  1
  H  H1  1  0.13247773  0.09336266  0.02058315  1
  C  C2  1  0.09622677  0.12642754  0.10110125  1
  C  C3  1  0.20281023  0.12814656  0.10826228  1
  C  C4  1  0.24772505  0.04350225  0.11892373  1
  O  O5  1  0.22010488  0.41798402  0.04430248  1
  C  C6  1  0.04001977  0.04526635  0.10606905  1
  C  C7  1  0.04058930  0.21470031  0.08967315  1
  C  C8  1  0.12501075  0.01889341  0.02671056  1
  C  C9  1  0.23101237  0.22413086  0.30754183  1
  O  O10  1  0.13220251  0.19674580  0.30211130  1
  Cu  Cu11  1  0.07301210  0.12687341  0.26953722  1
  O  O12  1  0.03804320  0.02232240  0.24421085  1
  C  C13  1  0.24127211  0.19528889  0.39931720  1
  H  H14  1  0.01666513  0.40033033  0.34561948  1
  C  C15  1  0.19929236  0.41168893  0.43026858  1
  H  H16  1  0.01424735  0.01084696  0.48884800  1
  C  C17  1  0.22971925  0.00850611  0.49267839  1
  H  H18  1  0.12335460  0.17287506  0.36031499  1
  C  C19  1  0.16564738  0.15599234  0.42453478  1
  N  N20  1  0.21367954  0.12867004  0.45190822  1
  H  H21  1  0.19812811  0.39753541  0.34471422  1
  H  H22  1  0.01688861  0.19644703  0.40260361  1
  C  C23  1  0.05398512  0.15321369  0.42262124  1
  C  C24  1  0.16486293  0.39981266  0.39731978  1
  H  H25  1  0.14333949  0.39910504  0.45135654  1
  C  C26  1  0.05049310  0.05722176  0.47084512  1
  C  C27  1  0.05116032  0.37218817  0.39547369  1
  C  C28  1  0.20429471  0.19364580  0.36641855  1
  N  N29  1  0.00649022  0.34779964  0.42406501  1
  H  H30  1  0.04297176  0.29643102  0.47748590  1
  C  C31  1  0.15893256  0.07376114  0.47071221  1
  C  C32  1  0.22759156  0.41103428  0.36863207  1
  O  O33  1  0.13498773  0.26392271  0.52360669  1
  O  O34  1  0.04209516  0.22123314  0.56400215  1
  C  C35  1  0.05393943  0.24879001  0.53663540  1
  H  H36  1  0.13911032  0.04288417  0.53437792  1
  C  C37  1  0.20431816  0.00359303  0.52553365  1
  C  C38  1  0.03113366  0.44587936  0.75854664  1
  C  C39  1  0.07133434  0.40625835  0.79115444  1
  C  C40  1  0.14435880  0.45661897  0.80922196  1
  C  C41  1  0.03512011  0.31655434  0.80138186  1
  O  O42  1  0.07169798  0.01352024  0.79098627  1
  C  C43  1  0.07787761  0.28501158  0.83090223  1
  H  H44  1  0.24713613  0.06061277  0.88864115  1
  C  C45  1  0.02877255  0.19454260  0.84794287  1
  C  C46  1  0.08999818  0.24012689  0.96833318  1
  O  O47  1  0.07816339  0.16017283  0.87154852  1
  C  C48  1  0.14692373  0.33535423  0.85082629  1
  H  H49  1  0.16364459  0.31161045  0.87547935  1
  O  O50  1  0.14666145  0.29449732  0.96697659  1
  C  C51  1  0.18290731  0.42048841  0.83983432  1
  C  C52  1  0.09836861  0.82739699  0.04002925  1
  C  C53  1  0.09317789  0.71828833  0.04266418  1
  C  C54  1  0.06038691  0.78173227  0.12906516  1
  O  O55  1  0.00562920  0.68882216  0.04272283  1
  C  C56  1  0.01075638  0.88441264  0.03767149  1
  H  H57  1  0.14739199  0.76850584  0.12903866  1
  O  O58  1  0.17805499  0.66996720  0.04759885  1
  H  H59  1  0.23974433  0.89925727  0.12986991  1
  C  C60  1  0.19774056  0.86614251  0.03971517  1
  C  C61  1  0.21402272  0.96102686  0.03159137  1
  C  C62  1  0.19436487  0.96097053  0.12446498  1
  C  C63  1  0.08549329  0.96023788  0.11614514  1
  C  C64  1  0.02838909  0.97716864  0.02969571  1
  C  C65  1  0.02303402  0.87285964  0.12216735  1
  H  H66  1  0.00511919  0.63750989  0.14236133  1
  H  H67  1  0.01506776  0.59163646  0.21871406  1
  C  C68  1  0.20811147  0.61288485  0.24040629  1
  C  C69  1  0.15563072  0.78468401  0.23907831  1
  C  C70  1  0.13030425  0.69118009  0.23322875  1
  C  C71  1  0.10241056  0.95337263  0.24085611  1
  O  O72  1  0.18530315  0.53380826  0.23425404  1
  C  C73  1  0.07541195  0.85061296  0.23504911  1
  H  H74  1  0.23348577  0.80763205  0.24858566  1
  O  O75  1  0.19246668  0.96729202  0.24584726  1
  H  H76  1  0.08875419  0.57963993  0.32972733  1
  C  C77  1  0.03135901  0.66368847  0.22321851  1
  N  N78  1  0.03498183  0.73832650  0.46861042  1
  C  C79  1  0.18086010  0.64517172  0.36815746  1
  C  C80  1  0.09666860  0.66032590  0.42128243  1
  C  C81  1  0.09029516  0.60462416  0.35476023  1
  C  C82  1  0.20639783  0.66414553  0.47421172  1
  C  C83  1  0.11067335  0.68321213  0.45743437  1
  C  C84  1  0.04786414  0.78052054  0.49789050  1
  C  C85  1  0.18588896  0.67041722  0.40094436  1
  C  C86  1  0.00715853  0.62321541  0.40688547  1
  H  H87  1  0.16195124  0.81532201  0.53783528  1
  Cu  Cu88  1  0.07992797  0.96778840  0.62921372  1
  H  H89  1  0.01756953  0.85378036  0.55853078  1
  C  C90  1  0.24057336  0.93627110  0.58052808  1
  C  C91  1  0.14622895  0.77425661  0.51510568  1
  C  C92  1  0.21889433  0.70876905  0.50437930  1
  O  O93  1  0.15782995  0.98083916  0.59018826  1
  O  O94  1  0.01960784  0.96855771  0.66843502  1
  C  C95  1  0.00726875  0.73776479  0.70948979  1
  C  C96  1  0.15660239  0.83912784  0.69905299  1
  C  C97  1  0.08023028  0.66778371  0.71735925  1
  C  C98  1  0.18643019  0.68491492  0.71879106  1
  H  H99  1  0.19124276  0.90812081  0.69469758  1
  C  C100  1  0.04898940  0.82243734  0.69733542  1
  H  H101  1  0.05115319  0.84613270  0.81690336  1
  C  C102  1  0.02884472  0.56829788  0.72334108  1
  O  O103  1  0.20953459  0.68141259  0.80157412  1
  N  N104  1  0.07077954  0.52679229  0.74823768  1
  O  O105  1  0.24692791  0.82381586  0.78241258  1
  H  H106  1  0.16905328  0.52392273  0.80047013  1
  C  C107  1  0.22430335  0.77034043  0.70801705  1
  C  C108  1  0.00080097  0.99341722  0.77290595  1
  H  H109  1  0.23961268  0.62493957  0.72490775  1
  O  O110  1  0.15193643  0.86826167  0.86938114  1
  Cu  Cu111  1  0.18191375  0.63792683  0.84745393  1
  O  O112  1  0.05198490  0.69450813  0.84448289  1
  C  C113  1  0.20636548  0.76074308  0.96808268  1
  O  O114  1  0.11762165  0.78632379  0.96692389  1
  O  O115  1  0.23695212  0.73606219  0.87259205  1
  O  O116  1  0.23561018  0.67801743  0.97709602  1
  C  C117  1  0.23008928  0.82584346  0.86606051  1
  H  H118  1  0.18572778  0.94406289  0.94651522  1
  H  H119  1  0.24510573  0.99788428  0.84496827  1
  N  N120  1  0.33338374  0.09117208  0.03823405  1
  C  C121  1  0.39851864  0.31125520  0.14733564  1
  C  C122  1  0.39108059  0.37732176  0.05254372  1
  C  C123  1  0.36786014  0.28553215  0.04282250  1
  O  O124  1  0.42382898  0.10364128  0.11251212  1
  C  C125  1  0.36733220  0.03563579  0.12222212  1
  O  O126  1  0.34035995  0.31603817  0.12387069  1
  H  H127  1  0.28997026  0.26735292  0.03623433  1
  C  C128  1  0.30524172  0.45000198  0.04825570  1
  O  O129  1  0.45622600  0.24025659  0.15478076  1
  C  C130  1  0.43145257  0.12215830  0.03482981  1
  C  C131  1  0.45380732  0.22368205  0.04363258  1
  C  C132  1  0.48999617  0.40686555  0.06192275  1
  H  H133  1  0.30961536  0.48045110  0.13391220  1
  C  C134  1  0.34985052  0.47864645  0.15773985  1
  C  C135  1  0.32140521  0.00394552  0.02767009  1
  H  H136  1  0.49840798  0.47861015  0.07251946  1
  H  H137  1  0.25481389  0.18878997  0.10374231  1
  C  C138  1  0.40626210  0.39623882  0.16794267  1
  O  O139  1  0.28090387  0.25261686  0.28561743  1
  H  H140  1  0.42943430  0.27043212  0.32934870  1
  O  O141  1  0.37353489  0.46187137  0.31636479  1
  C  C142  1  0.46550745  0.40147434  0.19637575  1
  C  C143  1  0.47615085  0.48515309  0.21505842  1
  C  C144  1  0.29986574  0.44262502  0.43451422  1
  C  C145  1  0.27438990  0.22201753  0.34213375  1
  C  C146  1  0.37719490  0.24545944  0.34920721  1
  C  C147  1  0.40117480  0.47015194  0.34715791  1
  C  C148  1  0.41258080  0.23877089  0.38093409  1
  C  C149  1  0.36366101  0.45827538  0.40742857  1
  O  O150  1  0.27808806  0.46268113  0.49347904  1
  C  C151  1  0.32709083  0.44634299  0.37545246  1
  C  C152  1  0.34559447  0.21996711  0.40664965  1
  H  H153  1  0.37109755  0.22463499  0.43261228  1
  C  C154  1  0.34026497  0.46557391  0.47044625  1
  O  O155  1  0.48936106  0.49262923  0.35249840  1
  H  H156  1  0.44147420  0.48300846  0.41123010  1
  O  O157  1  0.42923367  0.49517555  0.47350514  1
  O  O158  1  0.48744836  0.19311695  0.62083351  1
  H  H159  1  0.42928447  0.27829701  0.66730055  1
  O  O160  1  0.39398945  0.40695435  0.70165729  1
  C  C161  1  0.41245274  0.35547813  0.72359542  1
  C  C162  1  0.32448449  0.25845117  0.81424628  1
  C  C163  1  0.33152015  0.16230149  0.81504796  1
  O  O164  1  0.42402889  0.38864954  0.75416886  1
  C  C165  1  0.43897531  0.25288002  0.71931429  1
  C  C166  1  0.45182323  0.22890830  0.68609050  1
  C  C167  1  0.47865974  0.19795004  0.74392174  1
  H  H168  1  0.48620286  0.22793613  0.76948649  1
  C  C169  1  0.41785705  0.11372816  0.82981039  1
  H  H170  1  0.26141662  0.12175022  0.80899251  1
  H  H171  1  0.25784525  0.30278659  0.80571856  1
  H  H172  1  0.41895503  0.37987122  0.81961031  1
  C  C173  1  0.41925683  0.30497476  0.82319683  1
  C  C174  1  0.49142801  0.14217160  0.67771076  1
  N  N175  1  0.39885393  0.14362841  0.95127300  1
  C  C176  1  0.45610273  0.38207345  0.96706803  1
  H  H177  1  0.39957824  0.32801740  0.90040628  1
  C  C178  1  0.41390223  0.22764514  0.93977044  1
  C  C179  1  0.37567090  0.25885445  0.90918500  1
  O  O180  1  0.30801465  0.43818888  0.88184485  1
  C  C181  1  0.48726279  0.29073020  0.96038253  1
  C  C182  1  0.41727397  0.01286474  0.84354860  1
  C  C183  1  0.31408632  0.20007415  0.88859081  1
  C  C184  1  0.34121462  0.08129339  0.93332838  1
  C  C185  1  0.29270884  0.11229710  0.90314772  1
  H  H186  1  0.37554118  0.40477347  0.95990159  1
  C  C187  1  0.49815562  0.25302027  0.83924262  1
  H  H188  1  0.28999331  0.21958621  0.86362963  1
  C  C189  1  0.26789323  0.46844917  0.85704350  1
  C  C190  1  0.40164605  0.93727681  0.01832213  1
  H  H191  1  0.26434718  0.81635947  0.04611009  1
  O  O192  1  0.40059613  0.77442307  0.06777894  1
  O  O193  1  0.32246498  0.53879029  0.05095096  1
  Cu  Cu194  1  0.27762569  0.61548922  0.01619177  1
  C  C195  1  0.31960819  0.65566694  0.16191989  1
  O  O196  1  0.40239762  0.96858228  0.13574326  1
  H  H197  1  0.47854567  0.95998691  0.07776039  1
  H  H198  1  0.37563381  0.86769526  0.01051635  1
  C  C199  1  0.48898601  0.75635886  0.07900056  1
  O  O200  1  0.29150855  0.66328213  0.13316247  1
  C  C201  1  0.36647022  0.55862720  0.17381500  1
  O  O202  1  0.31968696  0.72259909  0.18028706  1
  C  C203  1  0.42331334  0.56450148  0.20262077  1
  H  H204  1  0.44575976  0.63244744  0.21354351  1
  Cu  Cu205  1  0.34319305  0.55651748  0.28751228  1
  O  O206  1  0.29423276  0.63371433  0.25527015  1
  O  O207  1  0.26042913  0.62431431  0.31608863  1
  H  H208  1  0.25664492  0.70174118  0.41064915  1
  H  H209  1  0.27083785  0.61940964  0.46545825  1
  O  O210  1  0.48113275  0.87125001  0.45158747  1
  H  H211  1  0.32433473  0.96373784  0.45149173  1
  C  C212  1  0.45347652  0.84197954  0.48094859  1
  C  C213  1  0.31148014  0.96038328  0.47732136  1
  O  O214  1  0.35791812  0.67826895  0.35777721  1
  C  C215  1  0.27355919  0.65595800  0.34612042  1
  C  C216  1  0.36791186  0.90138371  0.49782259  1
  C  C217  1  0.34894650  0.89281297  0.53148694  1
  H  H218  1  0.39333791  0.84331990  0.54645645  1
  C  C219  1  0.26676134  0.94365790  0.54486606  1
  O  O220  1  0.29253950  0.88987633  0.59869651  1
  H  H221  1  0.28983870  0.70168845  0.51907124  1
  O  O222  1  0.38342677  0.84653958  0.69544336  1
  C  C223  1  0.35016196  0.77448749  0.70864316  1
  O  O224  1  0.39617931  0.70388497  0.71708582  1
  H  H225  1  0.40516630  0.87999165  0.78725123  1
  C  C226  1  0.38892392  0.72967580  0.79131072  1
  H  H227  1  0.39729794  0.57825403  0.79793565  1
  C  C228  1  0.44033670  0.64522718  0.79418680  1
  C  C229  1  0.44253045  0.81355489  0.79018845  1
  C  C230  1  0.27215244  0.74715936  0.79180941  1
  O  O231  1  0.28610251  0.55262052  0.84534238  1
  C  C232  1  0.42411557  0.82550061  0.86268359  1
  C  C233  1  0.47649499  0.85451936  0.94871766  1
  C  C234  1  0.47835396  0.53682898  0.99327235  1
  C  C235  1  0.35133656  0.97914159  0.94314788  1
  C  C236  1  0.39487307  0.79088663  0.95569686  1
  C  C237  1  0.26656123  0.92091167  0.94979864  1
  C  C238  1  0.32216382  0.96921798  0.85028349  1
  O  O239  1  0.38200875  0.55702634  0.98855130  1
  H  H240  1  0.42820027  0.74996772  0.86904169  1
  C  C241  1  0.33007552  0.87447327  0.85919196  1
  H  H242  1  0.41225403  0.71747965  0.96213619  1
  C  C243  1  0.45773224  0.94979116  0.94371572  1
  C  C244  1  0.29399042  0.82844602  0.95832492  1
  H  H245  1  0.61691691  0.20141134  0.05646685  1
  O  O246  1  0.66240154  0.21278323  0.14591335  1
  H  H247  1  0.60029297  0.09065923  0.03357131  1
  O  O248  1  0.62580712  0.08983755  0.09749593  1
  C  C249  1  0.68333357  0.36943782  0.07399693  1
  C  C250  1  0.57241830  0.34286738  0.06300157  1
  C  C251  1  0.55205275  0.25096137  0.05466485  1
  O  O252  1  0.70543782  0.44947287  0.07663105  1
  Cu  Cu253  1  0.54255161  0.15666665  0.12853622  1
  H  H254  1  0.66430963  0.45966837  0.01006627  1
  H  H255  1  0.69912416  0.37247762  0.15840565  1
  O  O256  1  0.74819106  0.30015541  0.08026236  1
  C  C257  1  0.63370727  0.00091537  0.09467268  1
  C  C258  1  0.51966097  0.06379608  0.02994590  1
  O  O259  1  0.68471367  0.02399023  0.27608013  1
  C  C260  1  0.72146890  0.18941850  0.16966219  1
  H  H261  1  0.61402391  0.34254690  0.24098116  1
  O  O262  1  0.73313734  0.11013736  0.17850057  1
  C  C263  1  0.74531777  0.36387227  0.18089983  1
  C  C264  1  0.69852313  0.42958081  0.27454143  1
  C  C265  1  0.61529878  0.41122032  0.25252832  1
  C  C266  1  0.54766312  0.48709021  0.24490221  1
  H  H267  1  0.51508827  0.34048679  0.20212666  1
  H  H268  1  0.70384679  0.29255124  0.46001388  1
  O  O269  1  0.53607907  0.26227401  0.42399830  1
  H  H270  1  0.74933980  0.31318004  0.40441924  1
  O  O271  1  0.59619960  0.27539495  0.37431451  1
  O  O272  1  0.71644249  0.06235147  0.46806527  1
  C  C273  1  0.52495149  0.26210725  0.39377146  1
  Cu  Cu274  1  0.56748504  0.20183990  0.58461606  1
  C  C275  1  0.67643230  0.36363141  0.61216221  1
  O  O276  1  0.66056873  0.42099729  0.59096489  1
  O  O277  1  0.67112329  0.27366985  0.60749741  1
  C  C278  1  0.68615089  0.40453388  0.64554719  1
  C  C279  1  0.64854728  0.22969934  0.51878175  1
  O  O280  1  0.64654567  0.19018205  0.54819351  1
  O  O281  1  0.57498236  0.24386447  0.50150530  1
  O  O282  1  0.53219207  0.04978407  0.63342099  1
  C  C283  1  0.50157456  0.12492692  0.64180044  1
  H  H284  1  0.68479734  0.26858091  0.66794621  1
  C  C285  1  0.68691611  0.34002188  0.67108256  1
  C  C286  1  0.57667049  0.05353703  0.76139635  1
  C  C287  1  0.67668722  0.08638926  0.77277167  1
  C  C288  1  0.69286157  0.37298906  0.70311822  1
  C  C289  1  0.51936079  0.10991313  0.73480320  1
  Cu  Cu290  1  0.56379717  0.39783454  0.77121811  1
  C  C291  1  0.51537209  0.07595770  0.70277650  1
  O  O292  1  0.71299462  0.22661166  0.72442164  1
  O  O293  1  0.67853079  0.33517395  0.76086577  1
  C  C294  1  0.69515701  0.30664679  0.73096002  1
  H  H295  1  0.54644374  0.00550451  0.69622995  1
  H  H296  1  0.70880830  0.15765855  0.76463091  1
  C  C297  1  0.73982940  0.02240309  0.78996609  1
  C  C298  1  0.69221479  0.46956391  0.70956904  1
  O  O299  1  0.55241477  0.47663130  0.80371440  1
  H  H300  1  0.70103920  0.49439025  0.73495415  1
  N  N301  1  0.50402928  0.16015033  0.83564827  1
  C  C302  1  0.74585397  0.33730621  0.90772828  1
  H  H303  1  0.55570454  0.43654304  0.85882246  1
  C  C304  1  0.64423106  0.22002091  0.87638030  1
  C  C305  1  0.60629694  0.38474154  0.87102820  1
  C  C306  1  0.68585425  0.40594597  0.89226838  1
  H  H307  1  0.62722592  0.14545631  0.87056737  1
  C  C308  1  0.61788328  0.41111058  0.99466559  1
  C  C309  1  0.64862478  0.32033103  0.98617796  1
  C  C310  1  0.72364822  0.24515628  0.89816242  1
  H  H311  1  0.61017317  0.18703452  0.96052930  1
  C  C312  1  0.58301384  0.28990887  0.86245858  1
  C  C313  1  0.58678376  0.25629452  0.96931183  1
  C  C314  1  0.52031176  0.44046904  0.98471269  1
  H  H315  1  0.59001725  0.00684555  0.84215226  1
  C  C316  1  0.74526209  0.27242474  0.99470255  1
  C  C317  1  0.66252258  0.79658916  0.09742314  1
  H  H318  1  0.67337606  0.71722569  0.09602488  1
  C  C319  1  0.56943402  0.83807504  0.08796262  1
  C  C320  1  0.55580054  0.93319671  0.08740548  1
  C  C321  1  0.74348091  0.85709569  0.10761935  1
  O  O322  1  0.54680438  0.58894604  0.00151799  1
  C  C323  1  0.72800900  0.95488252  0.10622001  1
  H  H324  1  0.57359628  0.92446180  0.01420242  1
  C  C325  1  0.50708910  0.96869616  0.02153412  1
  O  O326  1  0.52255113  0.67699540  0.08192131  1
  H  H327  1  0.61128470  0.73282101  0.17230698  1
  H  H328  1  0.61114654  0.56010614  0.17165357  1
  C  C329  1  0.67598964  0.69283109  0.18351915  1
  C  C330  1  0.68005057  0.59537073  0.18126901  1
  C  C331  1  0.64849650  0.69314854  0.28892521  1
  C  C332  1  0.63620233  0.58845859  0.27679805  1
  C  C333  1  0.66623068  0.76966977  0.26833977  1
  H  H334  1  0.67111233  0.76043982  0.24193211  1
  C  C335  1  0.66944443  0.85606937  0.28361099  1
  C  C336  1  0.65000094  0.86497801  0.31659943  1
  N  N337  1  0.54892100  0.56513184  0.26149106  1
  C  C338  1  0.63758326  0.70058711  0.32261787  1
  O  O339  1  0.72476525  0.93960694  0.23406532  1
  C  C340  1  0.69090326  0.94855365  0.26160746  1
  H  H341  1  0.64808524  0.93133203  0.33044212  1
  C  C342  1  0.70905248  0.51978411  0.28736476  1
  O  O343  1  0.73430191  0.92799378  0.44225762  1
  O  O344  1  0.61587971  0.87206337  0.38955615  1
  O  O345  1  0.60353233  0.72430683  0.39026822  1
  Cu  Cu346  1  0.60572650  0.88322385  0.43406396  1
  C  C347  1  0.63750352  0.79044519  0.33790814  1
  H  H348  1  0.62178551  0.63836537  0.33880227  1
  C  C349  1  0.61850309  0.79225412  0.37456314  1
  O  O350  1  0.50078103  0.78192877  0.49476126  1
  H  H351  1  0.67004796  0.54995656  0.62962182  1
  C  C352  1  0.67945658  0.50182163  0.65012230  1
  H  H353  1  0.56783921  0.68317496  0.65612550  1
  C  C354  1  0.62410601  0.70454722  0.67527503  1
  H  H355  1  0.56461700  0.84903641  0.67812190  1
  C  C356  1  0.62407815  0.79800209  0.68687972  1
  C  C357  1  0.60939438  0.72715971  0.79145163  1
  C  C358  1  0.60690703  0.90467197  0.78044831  1
  C  C359  1  0.60493158  0.55604523  0.80016847  1
  C  C360  1  0.69193911  0.81848310  0.71316668  1
  C  C361  1  0.68880853  0.63571317  0.69041194  1
  C  C362  1  0.68441665  0.53173558  0.68268870  1
  O  O363  1  0.69961212  0.55744955  0.79837820  1
  H  H364  1  0.69349740  0.72469759  0.79082356  1
  C  C365  1  0.70664288  0.93049351  0.79374083  1
  H  H366  1  0.69767099  0.88777912  0.72552419  1
  C  C367  1  0.55345106  0.80997461  0.78786270  1
  C  C368  1  0.54938394  0.64453714  0.79487484  1
  N  N369  1  0.54345855  0.96483141  0.76548716  1
  C  C370  1  0.71295226  0.50453879  0.90402006  1
  O  O371  1  0.61175913  0.74321333  0.87046564  1
  C  C372  1  0.51533913  0.87818429  0.85735821  1
  C  C373  1  0.51893995  0.97255823  0.84818428  1
  O  O374  1  0.70286711  0.87228365  0.86300228  1
  H  H375  1  0.52131692  0.99813143  0.93821714  1
  C  C376  1  0.62038268  0.83447720  0.86403759  1
  C  C377  1  0.59070123  0.82156613  0.94738680  1
  O  O378  1  0.64148714  0.56788265  0.89714143  1
  O  O379  1  0.65424508  0.88340643  0.94520864  1
  Cu  Cu380  1  0.66007605  0.68865181  0.90740134  1
  O  O381  1  0.62247068  0.73600177  0.94582876  1
  Cu  Cu382  1  0.86188263  0.26360233  0.05437808  1
  O  O383  1  0.94043723  0.21458991  0.08940617  1
  O  O384  1  0.80584387  0.30627714  0.01747680  1
  H  H385  1  0.95250884  0.04421606  0.10341407  1
  O  O386  1  0.94686643  0.12315486  0.01286402  1
  H  H387  1  0.78713735  0.00656059  0.11482770  1
  C  C388  1  0.93277204  0.04254695  0.02620650  1
  O  O389  1  0.84986814  0.01457359  0.03476398  1
  O  O390  1  0.95404489  0.20246724  0.26778857  1
  C  C391  1  0.93277192  0.29131265  0.26394002  1
  C  C392  1  0.86599228  0.32265264  0.23539435  1
  H  H393  1  0.83358814  0.17334892  0.22416193  1
  C  C394  1  0.84684197  0.41650505  0.22709716  1
  C  C395  1  0.82392766  0.24749997  0.21768201  1
  C  C396  1  0.78961307  0.43974901  0.19797435  1
  H  H397  1  0.88153652  0.47341179  0.24331840  1
  O  O398  1  0.96701150  0.35140907  0.28094768  1
  C  C399  1  0.76581390  0.27189264  0.19037387  1
  H  H400  1  0.75601282  0.37215236  0.27983558  1
  H  H401  1  0.83292035  0.34834110  0.34571636  1
  C  C402  1  0.87389224  0.35205356  0.36848512  1
  H  H403  1  0.90807082  0.09913618  0.44324556  1
  C  C404  1  0.90694514  0.32515561  0.42626904  1
  C  C405  1  0.83242318  0.33146289  0.40030277  1
  C  C406  1  0.87436570  0.30132641  0.46199193  1
  C  C407  1  0.77150394  0.28803558  0.47500526  1
  C  C408  1  0.98020362  0.37522771  0.36834671  1
  C  C409  1  0.95735281  0.28986718  0.48468724  1
  C  C410  1  0.99625320  0.10040750  0.44485773  1
  C  C411  1  0.84177038  0.24379785  0.52864382  1
  H  H412  1  0.83108985  0.22507189  0.55462818  1
  C  C413  1  0.75733467  0.25282252  0.50624891  1
  H  H414  1  0.78324536  0.05608763  0.53153347  1
  O  O415  1  0.86115407  0.06902856  0.59067269  1
  C  C416  1  0.94139784  0.25776155  0.51603498  1
  H  H417  1  0.98683178  0.26878819  0.78569007  1
  H  H418  1  0.91463923  0.33145200  0.74871212  1
  C  C419  1  0.90998216  0.43965334  0.71216526  1
  H  H420  1  0.84873812  0.40218424  0.69831433  1
  O  O421  1  0.96971575  0.03909805  0.74989195  1
  C  C422  1  0.95247104  0.39807385  0.73944240  1
  H  H423  1  0.82290440  0.04087098  0.79779632  1
  O  O424  1  0.94745747  0.16117639  0.83647481  1
  C  C425  1  0.79048141  0.16813555  0.91251568  1
  Cu  Cu426  1  0.90813673  0.15796680  0.97392615  1
  O  O427  1  0.86634161  0.19319047  0.93297944  1
  H  H428  1  0.80437693  0.35451312  0.92433988  1
  O  O429  1  0.77671714  0.08781100  0.90654640  1
  O  O430  1  0.76632603  0.19120123  0.98490379  1
  C  C431  1  0.85269865  0.82093957  0.11749734  1
  C  C432  1  0.88119055  0.73175369  0.13106106  1
  N  N433  1  0.92130878  0.88985540  0.11473747  1
  H  H434  1  0.82359426  0.67870854  0.13755306  1
  H  H435  1  0.93599796  0.85002798  0.03885231  1
  C  C436  1  0.98625967  0.70979648  0.13573394  1
  C  C437  1  0.76472562  0.73906395  0.19605784  1
  C  C438  1  0.84955513  0.68804253  0.20927147  1
  H  H439  1  0.91947409  0.88153397  0.21815753  1
  C  C440  1  0.95039655  0.73167683  0.22082766  1
  N  N441  1  0.84926589  0.59325590  0.20621584  1
  C  C442  1  0.97396367  0.82734043  0.22516199  1
  H  H443  1  0.77170225  0.81618968  0.19500102  1
  C  C444  1  0.76839159  0.54489792  0.19339750  1
  O  O445  1  0.90060197  0.54400461  0.32807442  1
  H  H446  1  0.76215330  0.54174622  0.30594571  1
  C  C447  1  0.75892658  0.98822583  0.46531085  1
  C  C448  1  0.89690845  0.56717297  0.35767993  1
  O  O449  1  0.82004743  0.55066858  0.37404758  1
  H  H450  1  0.93660415  0.61831962  0.42168203  1
  C  C451  1  0.82738252  0.95626601  0.49408211  1
  C  C452  1  0.88835315  0.87908246  0.48571723  1
  H  H453  1  0.88821595  0.85313125  0.46018360  1
  C  C454  1  0.99828467  0.60350231  0.37314648  1
  C  C455  1  0.89592700  0.95828424  0.54775041  1
  C  C456  1  0.89885233  0.99713408  0.58135698  1
  O  O457  1  0.94930844  0.94351757  0.60227992  1
  C  C458  1  0.96277028  0.88304395  0.54096450  1
  C  C459  1  0.96345626  0.84711854  0.50892720  1
  C  C460  1  0.83137283  0.99848834  0.52475254  1
  N  N461  1  0.75335979  0.66033085  0.71434511  1
  H  H462  1  0.85550690  0.91591319  0.73425974  1
  H  H463  1  0.92042838  0.73240728  0.70962048  1
  C  C464  1  0.98465745  0.82863904  0.80028403  1
  C  C465  1  0.88062139  0.86520569  0.75359229  1
  O  O466  1  0.88630003  0.87281801  0.67688602  1
  C  C467  1  0.83805485  0.77429091  0.75338411  1
  C  C468  1  0.95387105  0.89038279  0.77676052  1
  C  C469  1  0.94925905  0.52901046  0.70408059  1
  C  C470  1  0.98261429  0.66991331  0.82273276  1
  C  C471  1  0.94054265  0.73809187  0.79840763  1
  O  O472  1  0.95358845  0.58910587  0.82106031  1
  C  C473  1  0.86197247  0.70695353  0.77718918  1
  H  H474  1  0.91816402  0.56729719  0.68334015  1
  H  H475  1  0.82551528  0.63649735  0.77777424  1
  C  C476  1  0.75912432  0.74681906  0.72575861  1
  C  C477  1  0.97650116  0.88980042  0.68022149  1
  H  H478  1  0.75379374  0.87669678  0.80576727  1
  O  O479  1  0.78540255  0.51819581  0.92166371  1
