# generated using pymatgen
data_CuH2(C3O2)2
_symmetry_space_group_name_H-M   'P 1'
_cell_length_a   21.52174020
_cell_length_b   21.50600322
_cell_length_c   23.62148847
_cell_angle_alpha   90.00000000
_cell_angle_beta   90.00000000
_cell_angle_gamma   90.00000000
_symmetry_Int_Tables_number   1
_chemical_formula_structural   CuH2(C3O2)2
_chemical_formula_sum   'Cu48 H96 C288 O192'
_cell_volume   10933.12595662
_cell_formula_units_Z   48
loop_
 _symmetry_equiv_pos_site_id
 _symmetry_equiv_pos_as_xyz
  1  'x, y, z'
loop_
 _atom_site_type_symbol
 _atom_site_label
 _atom_site_symmetry_multiplicity
 _atom_site_fract_x
 _atom_site_fract_y
 _atom_site_fract_z
 _atom_site_occupancy
  H  H0  1  0.41318216  0.37352838  0.09345816  1
  C  C1  1  0.31133671  0.09671535  0.05794477  1
  C  C2  1  0.18937376  0.12581494  0.09122402  1
  Cu  Cu3  1  0.29037797  0.35154348  0.00871255  1
  C  C4  1  0.20332847  0.10113770  0.03758761  1
  H  H5  1  0.14215042  0.14087179  0.10469865  1
  H  H6  1  0.03125337  0.01978817  0.13722649  1
  O  O7  1  0.29648023  0.36314125  0.09060762  1
  C  C8  1  0.37768418  0.08229627  0.04550102  1
  C  C9  1  0.06212138  0.28530051  0.01570170  1
  C  C10  1  0.30017204  0.33134669  0.13428520  1
  H  H11  1  0.32767822  0.25349280  0.22326581  1
  O  O12  1  0.25434147  0.31146175  0.16195212  1
  O  O13  1  0.41245438  0.08521825  0.08890004  1
  Cu  Cu14  1  0.45682280  0.02543412  0.12676564  1
  C  C15  1  0.36230398  0.31411537  0.15782456  1
  O  O16  1  0.10341576  0.02224793  0.20519246  1
  Cu  Cu17  1  0.18528977  0.28337326  0.13033765  1
  C  C18  1  0.16182527  0.39759973  0.01431059  1
  C  C19  1  0.22601228  0.15717005  0.18746414  1
  C  C20  1  0.08319519  0.28846699  0.07525506  1
  O  O21  1  0.06395126  0.33405294  0.10744863  1
  C  C22  1  0.36818885  0.27596150  0.20610646  1
  C  C23  1  0.23772198  0.13314353  0.12868270  1
  H  H24  1  0.02668624  0.11960904  0.19488604  1
  C  C25  1  0.26382678  0.08356356  0.02047705  1
  C  C26  1  0.29764637  0.11824764  0.11328177  1
  O  O27  1  0.09875261  0.11427682  0.02184499  1
  Cu  Cu28  1  0.12623326  0.39008915  0.13341394  1
  H  H29  1  0.33691230  0.11441974  0.14304663  1
  C  C30  1  0.01039759  0.16574534  0.20802725  1
  C  C31  1  0.41250344  0.34592813  0.13399430  1
  O  O32  1  0.15338806  0.42419109  0.06142760  1
  O  O33  1  0.26516224  0.15555639  0.22262872  1
  O  O34  1  0.45290769  0.02094572  0.20415122  1
  O  O35  1  0.11921598  0.24801612  0.09174542  1
  C  C36  1  0.14872394  0.09407690  0.00177946  1
  Cu  Cu37  1  0.02069109  0.07981508  0.03968611  1
  H  H38  1  0.46836106  0.27322150  0.03081503  1
  C  C39  1  0.46667402  0.33334074  0.16195376  1
  O  O40  1  0.10495494  0.37502005  0.20646050  1
  C  C41  1  0.47891835  0.29474879  0.20773662  1
  O  O42  1  0.17034606  0.17746830  0.20074483  1
  Cu  Cu43  1  0.16421681  0.24982189  0.23552960  1
  C  C44  1  0.42520292  0.26778596  0.23070988  1
  H  H45  1  0.07959447  0.48914327  0.01933883  1
  C  C46  1  0.15967574  0.48551805  0.23274223  1
  C  C47  1  0.14306368  0.37158665  0.24728055  1
  C  C48  1  0.41214386  0.04036669  0.23720335  1
  H  H49  1  0.12483208  0.48963150  0.19846159  1
  O  O50  1  0.37548477  0.34934817  0.00004346  1
  O  O51  1  0.20090831  0.35495952  0.01272942  1
  C  C52  1  0.01248265  0.32838767  0.00656284  1
  O  O53  1  0.40131364  0.09637796  0.24859934  1
  H  H54  1  0.01746250  0.27870588  0.30700270  1
  H  H55  1  0.30223961  0.06631311  0.28292940  1
  O  O56  1  0.18836149  0.04743319  0.31706139  1
  O  O57  1  0.39725878  0.12641188  0.41119205  1
  H  H58  1  0.05762740  0.26491314  0.44265399  1
  O  O59  1  0.31511735  0.42804168  0.38198672  1
  Cu  Cu60  1  0.13958041  0.07301845  0.25858396  1
  Cu  Cu61  1  0.09688469  0.14449486  0.41712731  1
  C  C62  1  0.05608233  0.16076658  0.30406477  1
  C  C63  1  0.00213587  0.25608587  0.26867719  1
  O  O64  1  0.07151178  0.10542020  0.29555851  1
  O  O65  1  0.15721689  0.19605546  0.44729561  1
  C  C66  1  0.02250237  0.19442751  0.26009873  1
  O  O67  1  0.38933518  0.20513146  0.30838383  1
  C  C68  1  0.21744881  0.42912042  0.30419877  1
  C  C69  1  0.43140504  0.23705480  0.28492886  1
  O  O70  1  0.04687321  0.09699668  0.46399377  1
  H  H71  1  0.22268948  0.38132229  0.32506581  1
  Cu  Cu72  1  0.48997025  0.25849020  0.38443118  1
  C  C73  1  0.37226145  0.08345365  0.44183968  1
  Cu  Cu74  1  0.40200442  0.11878874  0.33030258  1
  O  O75  1  0.07252945  0.18970326  0.34969438  1
  C  C76  1  0.25152109  0.48314262  0.31479329  1
  O  O77  1  0.36928651  0.02947844  0.42411297  1
  C  C78  1  0.17162624  0.43109607  0.26242953  1
  O  O79  1  0.15903518  0.32202663  0.27133746  1
  C  C80  1  0.30282165  0.47594150  0.35867840  1
  C  C81  1  0.06291501  0.27617769  0.48796208  1
  C  C82  1  0.31357919  0.01540064  0.28554811  1
  O  O83  1  0.48533646  0.24118458  0.30460537  1
  O  O84  1  0.48159359  0.25861073  0.46372840  1
  O  O85  1  0.43928229  0.44515264  0.49904730  1
  C  C86  1  0.26051195  0.02526750  0.61670803  1
  O  O87  1  0.25013678  0.04537205  0.66777337  1
  C  C88  1  0.31918546  0.05649738  0.52809464  1
  C  C89  1  0.39483220  0.21259162  0.61503208  1
  O  O90  1  0.41330246  0.25382905  0.58604697  1
  C  C91  1  0.30489091  0.06436274  0.58637832  1
  C  C92  1  0.06273596  0.30923586  0.59770939  1
  H  H93  1  0.06435923  0.05830540  0.56518734  1
  C  C94  1  0.46227832  0.43928095  0.67149860  1
  O  O95  1  0.09408025  0.29479932  0.69109907  1
  C  C96  1  0.05972066  0.32582708  0.65901059  1
  C  C97  1  0.36887060  0.15595204  0.58354991  1
  O  O98  1  0.19171936  0.18126344  0.53487858  1
  C  C99  1  0.33228518  0.11483761  0.61457156  1
  C  C100  1  0.02053230  0.33926469  0.56207109  1
  C  C101  1  0.15643670  0.20514638  0.50242169  1
  O  O102  1  0.02475205  0.36721112  0.67917023  1
  H  H103  1  0.32092217  0.12467211  0.66101063  1
  C  C104  1  0.37946479  0.15227423  0.52557831  1
  H  H105  1  0.45143932  0.38923787  0.59250575  1
  Cu  Cu106  1  0.05046857  0.44350228  0.71023969  1
  H  H107  1  0.14407020  0.24785150  0.60758829  1
  O  O108  1  0.39710996  0.21537797  0.66856539  1
  C  C109  1  0.45601497  0.43494011  0.61320273  1
  C  C110  1  0.47051678  0.38240192  0.70710998  1
  Cu  Cu111  1  0.46350437  0.25086351  0.70409550  1
  C  C112  1  0.02033761  0.32085956  0.50574897  1
  C  C113  1  0.10882485  0.26671062  0.58004565  1
  O  O114  1  0.47778437  0.32933984  0.68068390  1
  C  C115  1  0.10833445  0.25109066  0.52327966  1
  C  C116  1  0.01572622  0.04415873  0.56997681  1
  C  C117  1  0.39932379  0.02234527  0.73505285  1
  H  H118  1  0.30004179  0.01664035  0.50662554  1
  C  C119  1  0.43347295  0.49446675  0.52597388  1
  Cu  Cu120  1  0.26528706  0.00663816  0.73537350  1
  O  O121  1  0.39577048  0.07554461  0.74804291  1
  C  C122  1  0.44314213  0.49242383  0.58679586  1
  C  C123  1  0.46340578  0.49533345  0.70455164  1
  H  H124  1  0.47142991  0.49634453  0.74920625  1
  C  C125  1  0.35701440  0.09844161  0.50061105  1
  H  H126  1  0.41008459  0.18652748  0.50450656  1
  O  O127  1  0.46775271  0.38908637  0.75737850  1
  H  H128  1  0.42602270  0.29310960  0.85138162  1
  C  C129  1  0.39690271  0.33660850  0.95078157  1
  C  C130  1  0.44368962  0.28864180  0.94185652  1
  O  O131  1  0.24269433  0.41435944  0.83868637  1
  C  C132  1  0.04052589  0.48460247  0.93470787  1
  C  C133  1  0.07989828  0.41071914  0.87202642  1
  O  O134  1  0.10600337  0.33687452  0.79938008  1
  C  C135  1  0.24830007  0.45499172  0.87481997  1
  O  O136  1  0.22460840  0.04247940  0.79412001  1
  C  C137  1  0.08346183  0.24635003  0.97314636  1
  O  O138  1  0.15090399  0.06834897  0.95285298  1
  C  C139  1  0.12093228  0.38849231  0.91366414  1
  O  O140  1  0.38036684  0.36791450  0.90895902  1
  Cu  Cu141  1  0.07649931  0.26106732  0.76070185  1
  C  C142  1  0.07551936  0.38407246  0.81331023  1
  H  H143  1  0.15808752  0.46866354  0.79521982  1
  O  O144  1  0.48907479  0.47924040  0.97481676  1
  O  O145  1  0.03730425  0.40828541  0.78060723  1
  H  H146  1  0.30802324  0.00697067  0.85475454  1
  H  H147  1  0.15449237  0.34985005  0.90739484  1
  C  C148  1  0.07182765  0.21190812  0.87260003  1
  O  O149  1  0.46273695  0.46023645  0.88525628  1
  Cu  Cu150  1  0.09979476  0.07655396  0.88424812  1
  H  H151  1  0.00822111  0.47858560  0.84762352  1
  O  O152  1  0.11126744  0.16974090  0.87869227  1
  C  C153  1  0.12228287  0.41628939  0.96603265  1
  O  O154  1  0.01921074  0.04604271  0.90391591  1
  C  C155  1  0.45592190  0.27106471  0.88618004  1
  C  C156  1  0.05295828  0.24958004  0.92125687  1
  C  C157  1  0.07980283  0.46652124  0.97827550  1
  O  O158  1  0.28693990  0.44944886  0.91516741  1
  C  C159  1  0.47732080  0.26217595  0.98628569  1
  Cu  Cu160  1  0.37510030  0.45849141  0.89898818  1
  O  O161  1  0.46149831  0.22646816  0.77903303  1
  O  O162  1  0.04941895  0.21794895  0.82313221  1
  C  C163  1  0.03759305  0.46032264  0.88078220  1
  C  C164  1  0.18976765  0.01239733  0.82686783  1
  H  H165  1  0.12132852  0.21347056  0.97612660  1
  O  O166  1  0.13127758  0.02298519  0.82659342  1
  Cu  Cu167  1  0.46276755  0.01104439  0.97084505  1
  C  C168  1  0.49768958  0.45319958  0.92759800  1
  H  H169  1  0.27435594  0.06644531  0.97863409  1
  C  C170  1  0.00528578  0.29302621  0.91000782  1
  O  O171  1  0.39935235  0.07087021  0.99909718  1
  H  H172  1  0.13492341  0.85348124  0.15361202  1
  O  O173  1  0.12904667  0.76677875  0.07700320  1
  C  C174  1  0.02135200  0.89081484  0.05444540  1
  H  H175  1  0.06871749  0.64406689  0.24582189  1
  C  C176  1  0.06842225  0.85848806  0.08247384  1
  C  C177  1  0.08347848  0.93834262  0.14452706  1
  C  C178  1  0.10024214  0.87791846  0.13086663  1
  H  H179  1  0.32231309  0.81608355  0.13878862  1
  O  O180  1  0.35629307  0.91766499  0.10668308  1
  C  C181  1  0.36979050  0.80041337  0.15125815  1
  C  C182  1  0.40762615  0.90528702  0.12003879  1
  O  O183  1  0.15176997  0.93573792  0.22434627  1
  O  O184  1  0.04622012  0.77154700  0.02335079  1
  C  C185  1  0.11736643  0.96672103  0.19240714  1
  O  O186  1  0.21083981  0.64641636  0.23130738  1
  C  C187  1  0.41954862  0.84122000  0.14511123  1
  C  C188  1  0.08245565  0.79680084  0.05811373  1
  O  O189  1  0.45550577  0.94342378  0.11609442  1
  C  C190  1  0.38120570  0.74019745  0.16935944  1
  O  O191  1  0.26990311  0.71974527  0.16206608  1
  C  C192  1  0.48810804  0.76492755  0.18139104  1
  C  C193  1  0.44185888  0.71993619  0.18504468  1
  Cu  Cu194  1  0.46622948  0.90286192  0.00923231  1
  C  C195  1  0.03062555  0.67201316  0.22940271  1
  C  C196  1  0.17933577  0.59750437  0.21301328  1
  C  C197  1  0.32780547  0.69884734  0.17412495  1
  Cu  Cu198  1  0.17911599  0.72600455  0.03025618  1
  C  C199  1  0.03719288  0.73745746  0.23068505  1
  C  C200  1  0.03739803  0.97394499  0.11933774  1
  O  O201  1  0.14611597  0.60188409  0.17371709  1
  C  C202  1  0.47968762  0.82490678  0.16230822  1
  Cu  Cu203  1  0.20991857  0.73019994  0.21512094  1
  O  O204  1  0.33800845  0.64650867  0.18785417  1
  H  H205  1  0.44756747  0.67205885  0.20202987  1
  C  C206  1  0.09409068  0.76927255  0.24774148  1
  O  O207  1  0.09180169  0.82850653  0.24465563  1
  C  C208  1  0.00154678  0.94980490  0.07477056  1
  O  O209  1  0.48712714  0.74718019  0.04172672  1
  C  C210  1  0.19385539  0.53896553  0.24536480  1
  O  O211  1  0.00194355  0.54025193  0.23917009  1
  H  H212  1  0.00244487  0.87018761  0.01699904  1
  H  H213  1  0.42858615  0.66161883  0.00727530  1
  Cu  Cu214  1  0.47587819  0.56127397  0.00140405  1
  Cu  Cu215  1  0.42998244  0.96127930  0.43614324  1
  C  C216  1  0.28770430  0.91059530  0.31681052  1
  Cu  Cu217  1  0.46559058  0.85708517  0.38589771  1
  C  C218  1  0.33553385  0.74722283  0.47217623  1
  O  O219  1  0.24447218  0.61333336  0.45980144  1
  O  O220  1  0.16879706  0.94931882  0.33562498  1
  C  C221  1  0.20686491  0.99173268  0.32247306  1
  C  C222  1  0.28886439  0.64622999  0.46191139  1
  H  H223  1  0.25672704  0.87347511  0.33177550  1
  C  C224  1  0.36754703  0.82788328  0.31306225  1
  Cu  Cu225  1  0.12641000  0.89359146  0.28980637  1
  C  C226  1  0.35062181  0.89630236  0.30335702  1
  Cu  Cu227  1  0.37556030  0.54423315  0.43748631  1
  H  H228  1  0.37742796  0.72695672  0.45152971  1
  C  C229  1  0.38620098  0.84945742  0.47309859  1
  C  C230  1  0.23781070  0.53928753  0.28938980  1
  O  O231  1  0.43322885  0.82487061  0.45285222  1
  C  C232  1  0.33096640  0.81077438  0.48841922  1
  C  C233  1  0.26977983  0.97261095  0.30717990  1
  C  C234  1  0.39219695  0.93623673  0.27854718  1
  O  O235  1  0.33065753  0.52848590  0.36970537  1
  O  O236  1  0.32902699  0.78904692  0.31747704  1
  O  O237  1  0.42668008  0.81739204  0.32231375  1
  H  H238  1  0.26115619  0.58219940  0.30372109  1
  O  O239  1  0.38127122  0.90770095  0.48224466  1
  O  O240  1  0.34388427  0.62837979  0.44741341  1
  H  H241  1  0.43758156  0.92034964  0.26327569  1
  C  C242  1  0.28200504  0.71411738  0.48077012  1
  C  C243  1  0.37193856  0.99707864  0.26836888  1
  O  O244  1  0.48467602  0.99415402  0.37977681  1
  O  O245  1  0.14450507  0.74437311  0.26288813  1
  C  C246  1  0.03965619  0.97006214  0.64193908  1
  C  C247  1  0.16864473  0.82776455  0.54013697  1
  H  H248  1  0.18598931  0.71175477  0.50435229  1
  C  C249  1  0.48200062  0.83935690  0.63890364  1
  O  O250  1  0.15882287  0.88409415  0.54992263  1
  C  C251  1  0.44802595  0.61161089  0.70225654  1
  C  C252  1  0.20035977  0.84965323  0.71793518  1
  C  C253  1  0.44595564  0.93801304  0.68182081  1
  H  H254  1  0.11249129  0.83108780  0.63158705  1
  C  C255  1  0.22832522  0.73871670  0.50533818  1
  H  H256  1  0.39608311  0.92015075  0.68120257  1
  H  H257  1  0.41749573  0.58914487  0.59425230  1
  C  C258  1  0.13694201  0.81493832  0.71827376  1
  C  C259  1  0.09765187  0.81024698  0.67305211  1
  C  C260  1  0.43525796  0.54795597  0.61673278  1
  O  O261  1  0.21629446  0.87355622  0.66968516  1
  C  C262  1  0.04144415  0.77804019  0.68015959  1
  Cu  Cu263  1  0.16479914  0.92453593  0.61938153  1
  C  C264  1  0.45684741  0.99541486  0.70625931  1
  C  C265  1  0.45024341  0.54846762  0.67418738  1
  O  O266  1  0.23362930  0.98004980  0.59533718  1
  C  C267  1  0.00021666  0.77749787  0.62827867  1
  O  O268  1  0.42605700  0.81628197  0.64885512  1
  O  O269  1  0.12575978  0.78601749  0.54406987  1
  Cu  Cu270  1  0.04799261  0.79620430  0.51097077  1
  O  O271  1  0.02735294  0.93563922  0.67971384  1
  Cu  Cu272  1  0.40921244  0.73896644  0.68310622  1
  O  O273  1  0.43431000  0.65874005  0.67036299  1
  H  H274  1  0.28105738  0.89086496  0.52344489  1
  C  C275  1  0.22715379  0.80342071  0.51937530  1
  O  O276  1  0.09861246  0.97714240  0.62635261  1
  C  C277  1  0.02195329  0.75164187  0.73025374  1
  O  O278  1  0.08271866  0.51560297  0.73084079  1
  C  C279  1  0.49625928  0.90390929  0.65785491  1
  O  O280  1  0.01426260  0.81206013  0.58490453  1
  O  O281  1  0.35110143  0.98584623  0.73577533  1
  C  C282  1  0.28109779  0.84016378  0.51330451  1
  O  O283  1  0.42032311  0.54637119  0.50015125  1
  C  C284  1  0.38224594  0.58105491  0.92875319  1
  O  O285  1  0.40924560  0.97181761  0.91691656  1
  O  O286  1  0.36590364  0.54407597  0.88977038  1
  C  C287  1  0.28143916  0.97326148  0.87750409  1
  C  C288  1  0.44126674  0.73868111  0.95105595  1
  H  H289  1  0.14922198  0.78953814  0.80709049  1
  C  C290  1  0.17663190  0.83228824  0.95838633  1
  C  C291  1  0.04999316  0.73052825  0.82992548  1
  O  O292  1  0.37217371  0.74055030  0.75893523  1
  C  C293  1  0.12162948  0.78750489  0.76952783  1
  C  C294  1  0.11192447  0.55319401  0.82087311  1
  H  H295  1  0.44929394  0.81712897  0.88920519  1
  C  C296  1  0.19511029  0.55175526  0.91430482  1
  O  O297  1  0.11977549  0.82976931  0.94903126  1
  C  C298  1  0.06564232  0.75517087  0.77443364  1
  O  O299  1  0.38824639  0.89597466  0.97739541  1
  C  C300  1  0.30787956  0.93426113  0.91783041  1
  C  C301  1  0.07514346  0.55366547  0.77068845  1
  O  O302  1  0.08654734  0.74427764  0.86969848  1
  C  C303  1  0.39312193  0.67249058  0.86481758  1
  C  C304  1  0.14775056  0.59583480  0.90980810  1
  H  H305  1  0.13061118  0.91770751  0.88530231  1
  O  O306  1  0.09508339  0.67074327  0.96161802  1
  H  H307  1  0.06856546  0.63481971  0.86141919  1
  C  C308  1  0.10540010  0.59591692  0.86502363  1
  O  O309  1  0.03072930  0.59552444  0.76785291  1
  C  C310  1  0.20791921  0.88510694  0.93079609  1
  C  C311  1  0.27169948  0.88700603  0.94284644  1
  H  H312  1  0.23188792  0.54888648  0.94952808  1
  C  C313  1  0.42251554  0.67888727  0.96432056  1
  Cu  Cu314  1  0.06998771  0.75466995  0.94628083  1
  O  O315  1  0.20786350  0.79166519  0.98678725  1
  C  C316  1  0.14650919  0.64205559  0.95664419  1
  C  C317  1  0.40771255  0.73425479  0.85576623  1
  C  C318  1  0.39856665  0.64564393  0.91866355  1
  H  H319  1  0.29118060  0.85395192  0.97214899  1
  H  H320  1  0.37120705  0.64540109  0.83127311  1
  C  C321  1  0.37269477  0.93252278  0.93733959  1
  C  C322  1  0.17804860  0.92439531  0.89297035  1
  C  C323  1  0.21717055  0.96819773  0.86645507  1
  C  C324  1  0.39489165  0.76965104  0.80199230  1
  O  O325  1  0.39446675  0.56412555  0.97879939  1
  C  C326  1  0.19897861  0.50765021  0.87202475  1
  O  O327  1  0.40347578  0.82482946  0.80015379  1
  C  C328  1  0.43387437  0.76880635  0.89975955  1
  O  O329  1  0.18992220  0.65070776  0.98978062  1
  C  C330  1  0.15792759  0.50735234  0.82707355  1
  C  C331  1  0.47835624  0.77163984  0.99679704  1
  O  O332  1  0.49717028  0.82590211  0.98141426  1
  O  O333  1  0.23130895  0.85365172  0.76020883  1
  O  O334  1  0.45411232  0.61603285  0.75226051  1
  C  C335  1  0.95709217  0.25973983  0.17410029  1
  O  O336  1  0.68702732  0.17673577  0.08217481  1
  O  O337  1  0.95319577  0.19284937  0.06581284  1
  C  C338  1  0.97877923  0.19949294  0.16685199  1
  C  C339  1  0.56474257  0.18794239  0.01493988  1
  H  H340  1  0.93014032  0.27936964  0.14143288  1
  O  O341  1  0.64411449  0.25873014  0.19261424  1
  Cu  Cu342  1  0.74844747  0.14320074  0.21914617  1
  C  C343  1  0.96942243  0.28642930  0.22666362  1
  O  O344  1  0.54664942  0.19453472  0.06257073  1
  C  C345  1  0.74881721  0.02508063  0.08284946  1
  C  C346  1  0.52449645  0.36365637  0.13659372  1
  C  C347  1  0.63950129  0.05604967  0.07159446  1
  H  H348  1  0.60317258  0.09283435  0.07325111  1
  O  O349  1  0.75945076  0.13906335  0.13813483  1
  C  C350  1  0.70100900  0.06801182  0.08419411  1
  H  H351  1  0.52698768  0.29363835  0.22742036  1
  Cu  Cu352  1  0.63947083  0.30584215  0.12853241  1
  C  C353  1  0.69149852  0.25830906  0.22409393  1
  O  O354  1  0.52016914  0.39774526  0.09614269  1
  O  O355  1  0.74082089  0.22904217  0.21066237  1
  H  H356  1  0.79661632  0.03899290  0.08873072  1
  O  O357  1  0.57648744  0.35267136  0.16116600  1
  C  C358  1  0.71716286  0.13236214  0.10267895  1
  O  O359  1  0.64966562  0.34693176  0.06380025  1
  Cu  Cu360  1  0.69630732  0.19303023  0.00492654  1
  H  H361  1  0.99181874  0.35696564  0.04051702  1
  O  O362  1  0.90868287  0.37458904  0.20763950  1
  O  O363  1  0.70570976  0.28589930  0.01198889  1
  C  C364  1  0.97383165  0.16807926  0.11149599  1
  H  H365  1  0.57209009  0.40883302  0.01304681  1
  O  O366  1  0.99716487  0.11470033  0.10821030  1
  Cu  Cu367  1  0.89276223  0.48693220  0.01173552  1
  C  C368  1  0.66222492  0.32492305  0.01564627  1
  O  O369  1  0.52231594  0.02226800  0.02840859  1
  C  C370  1  0.94464723  0.35031027  0.24026586  1
  O  O371  1  0.92395855  0.40788921  0.00178336  1
  O  O372  1  0.73417315  0.14393635  0.30055553  1
  O  O373  1  0.65783647  0.15480433  0.36178108  1
  H  H374  1  0.73919294  0.03679848  0.25920200  1
  H  H375  1  0.53577579  0.16887686  0.47889411  1
  H  H376  1  0.79409622  0.28034213  0.28786965  1
  O  O377  1  0.58388299  0.37942892  0.43140507  1
  C  C378  1  0.74616837  0.32409815  0.35962749  1
  O  O379  1  0.52684165  0.33586703  0.36292225  1
  C  C380  1  0.97263061  0.34638559  0.46739799  1
  Cu  Cu381  1  0.51525207  0.41201928  0.46514467  1
  C  C382  1  0.68926426  0.02773997  0.27025290  1
  C  C383  1  0.59934979  0.04762651  0.33345401  1
  C  C384  1  0.65664420  0.06498065  0.30926016  1
  C  C385  1  0.68448915  0.12464877  0.32712768  1
  C  C386  1  0.63540282  0.33386834  0.35688512  1
  O  O387  1  0.92525777  0.37137744  0.48730688  1
  O  O388  1  0.96249655  0.37380338  0.28910430  1
  C  C389  1  0.63404458  0.30345780  0.30587564  1
  C  C390  1  0.74760859  0.29815053  0.30534045  1
  O  O391  1  0.85432670  0.31143392  0.36884971  1
  C  C392  1  0.80667187  0.33021296  0.39183310  1
  C  C393  1  0.69074248  0.28941415  0.27877710  1
  O  O394  1  0.81028490  0.35189890  0.44132905  1
  C  C395  1  0.69210921  0.34689219  0.38459210  1
  Cu  Cu396  1  0.92469905  0.36474105  0.36062782  1
  H  H397  1  0.58138841  0.07943271  0.36582699  1
  C  C398  1  0.57822745  0.35099537  0.38460273  1
  H  H399  1  0.69633470  0.37570481  0.42171442  1
  H  H400  1  0.58779624  0.29234830  0.28888982  1
  O  O401  1  0.97770735  0.33263521  0.41505086  1
  O  O402  1  0.95197942  0.13166709  0.45359966  1
  C  C403  1  0.74865711  0.49757815  0.39156876  1
  C  C404  1  0.98835427  0.10257589  0.48056198  1
  O  O405  1  0.52724574  0.48554470  0.42131204  1
  H  H406  1  0.80572159  0.49410836  0.46623054  1
  O  O407  1  0.69059566  0.06802389  0.48302065  1
  C  C408  1  0.63536447  0.09162590  0.47974089  1
  O  O409  1  0.58840472  0.06205610  0.47242208  1
  C  C410  1  0.80661252  0.48821620  0.35222723  1
  C  C411  1  0.51910616  0.28622760  0.49700348  1
  O  O412  1  0.85750019  0.47983898  0.36775971  1
  O  O413  1  0.79324025  0.49678054  0.29991157  1
  C  C414  1  0.57278220  0.49889932  0.38652946  1
  H  H415  1  0.67806662  0.49985174  0.32442309  1
  O  O416  1  0.88393180  0.00747379  0.25735161  1
  C  C417  1  0.63341699  0.15840886  0.49727473  1
  C  C418  1  0.57697310  0.18915755  0.49466621  1
  C  C419  1  0.68871362  0.18837127  0.51210264  1
  O  O420  1  0.77792884  0.03549318  0.55472789  1
  O  O421  1  0.62778631  0.07613338  0.70017165  1
  C  C422  1  0.90604136  0.06405260  0.54279278  1
  C  C423  1  0.62718034  0.28231624  0.53121326  1
  C  C424  1  0.74059938  0.28584505  0.54422838  1
  C  C425  1  0.86960816  0.38889595  0.70186110  1
  O  O426  1  0.72805744  0.33865056  0.56673011  1
  C  C427  1  0.57481360  0.25197703  0.51101485  1
  C  C428  1  0.88308290  0.45136060  0.68777935  1
  O  O429  1  0.92184448  0.49894593  0.60762570  1
  H  H430  1  0.87356578  0.35147674  0.67302556  1
  O  O431  1  0.87490237  0.41175771  0.58829726  1
  C  C432  1  0.96893941  0.07020409  0.53386719  1
  O  O433  1  0.79335446  0.27124244  0.53134899  1
  O  O434  1  0.80631448  0.04800268  0.72160807  1
  H  H435  1  0.98782600  0.37191879  0.57988562  1
  Cu  Cu436  1  0.79527555  0.38945452  0.58013335  1
  H  H437  1  0.62562354  0.33328618  0.54266634  1
  H  H438  1  0.73503103  0.16557090  0.50929580  1
  C  C439  1  0.68377681  0.24974226  0.52909712  1
  Cu  Cu440  1  0.85659860  0.32447038  0.50726329  1
  O  O441  1  0.84239819  0.27572834  0.74302835  1
  O  O442  1  0.51287349  0.34413601  0.50966364  1
  C  C443  1  0.89428331  0.45391706  0.62344382  1
  C  C444  1  0.51357712  0.02724903  0.70272478  1
  O  O445  1  0.77012086  0.47204397  0.56327589  1
  O  O446  1  0.89897759  0.01083200  0.73441616  1
  C  C447  1  0.62188943  0.02589348  0.68078257  1
  C  C448  1  0.71665808  0.49377824  0.54713103  1
  O  O449  1  0.67296704  0.49809974  0.57790520  1
  C  C450  1  0.88361146  0.02437892  0.58514307  1
  C  C451  1  0.98988399  0.00323502  0.60922594  1
  H  H452  1  0.87338634  0.08761792  0.51344702  1
  C  C453  1  0.81525751  0.01405797  0.59072301  1
  H  H454  1  0.52340168  0.07335075  0.71983057  1
  C  C455  1  0.58005107  0.38883478  0.97175447  1
  C  C456  1  0.62497683  0.34306525  0.96618482  1
  O  O457  1  0.76222400  0.18569227  0.95386490  1
  C  C458  1  0.60678276  0.33784717  0.86597345  1
  Cu  Cu459  1  0.73606882  0.25377698  0.82914049  1
  C  C460  1  0.91828749  0.05976922  0.84050035  1
  H  H461  1  0.87623248  0.14433025  0.95559275  1
  H  H462  1  0.57573924  0.16609415  0.90362309  1
  C  C463  1  0.81136578  0.10491377  0.82705506  1
  H  H464  1  0.82974408  0.42218791  0.83782058  1
  C  C465  1  0.84648369  0.43097409  0.79452794  1
  C  C466  1  0.56179105  0.38258343  0.86854973  1
  O  O467  1  0.90933745  0.39131384  0.90776962  1
  C  C468  1  0.93537734  0.37875102  0.95005293  1
  C  C469  1  0.63830070  0.31805671  0.91289559  1
  C  C470  1  0.54702340  0.40595849  0.92323342  1
  O  O471  1  0.72327571  0.18373730  0.86731860  1
  O  O472  1  0.65390353  0.26075790  0.81022383  1
  C  C473  1  0.76423219  0.17012349  0.90206933  1
  C  C474  1  0.81631093  0.13113075  0.88056732  1
  O  O475  1  0.97940943  0.10298954  0.97423135  1
  C  C476  1  0.86913559  0.12150884  0.91404255  1
  H  H477  1  0.67555766  0.28554514  0.90690022  1
  C  C478  1  0.92084304  0.09115082  0.89284295  1
  C  C479  1  0.62091347  0.31194909  0.80645958  1
  C  C480  1  0.52471793  0.22037414  0.97028071  1
  C  C481  1  0.97695843  0.08080919  0.92451371  1
  O  O482  1  0.54019313  0.16933702  0.79915457  1
  H  H483  1  0.77020469  0.10821802  0.79579421  1
  H  H484  1  0.98591940  0.29872592  0.86834874  1
  O  O485  1  0.80299729  0.30523521  0.82336461  1
  C  C486  1  0.98484340  0.33006136  0.95308480  1
  C  C487  1  0.86300852  0.07140510  0.81008823  1
  C  C488  1  0.54001071  0.20004351  0.91597974  1
  H  H489  1  0.95176880  0.02358008  0.82616090  1
  C  C490  1  0.82947894  0.31825228  0.77507666  1
  C  C491  1  0.85705539  0.04161037  0.75174081  1
  O  O492  1  0.61496250  0.34421512  0.76734305  1
  H  H493  1  0.54144589  0.40352745  0.82987808  1
  C  C494  1  0.85064074  0.38165333  0.75766790  1
  O  O495  1  0.61342550  0.15720178  0.99897428  1
  C  C496  1  0.86278768  0.49241990  0.77689013  1
  C  C497  1  0.50169295  0.20373051  0.81400265  1
  C  C498  1  0.50065857  0.22470033  0.87553755  1
  Cu  Cu499  1  0.99175313  0.18387330  0.99940578  1
  Cu  Cu500  1  0.82246601  0.79105884  0.06583417  1
  O  O501  1  0.91076980  0.55411312  0.19898843  1
  C  C502  1  0.98802949  0.77357497  0.21197425  1
  C  C503  1  0.68071242  0.57369322  0.04592219  1
  C  C504  1  0.56116567  0.97847370  0.03858842  1
  C  C505  1  0.96506294  0.57302763  0.21654948  1
  O  O506  1  0.74822505  0.94074358  0.20808862  1
  O  O507  1  0.76537645  0.85900861  0.07747438  1
  C  C508  1  0.64222049  0.59789730  0.08730421  1
  Cu  Cu509  1  0.89270036  0.93302840  0.00842497  1
  H  H510  1  0.81276860  0.58699713  0.12865151  1
  C  C511  1  0.66812429  0.94614238  0.06454375  1
  O  O512  1  0.84421368  0.76255701  0.13497333  1
  C  C513  1  0.72982795  0.96323972  0.07586931  1
  C  C514  1  0.74521129  0.57422031  0.06039734  1
  H  H515  1  0.88470086  0.65687585  0.17664181  1
  C  C516  1  0.65763815  0.61274982  0.14373862  1
  O  O517  1  0.66159473  0.88399416  0.19901354  1
  C  C518  1  0.88722227  0.78490685  0.16320924  1
  C  C519  1  0.78033166  0.91646248  0.07738410  1
  O  O520  1  0.95462356  0.97759244  0.05113374  1
  O  O521  1  0.53532613  0.61513171  0.10551764  1
  H  H522  1  0.99290914  0.82421594  0.21122581  1
  C  C523  1  0.93646127  0.74391368  0.18796226  1
  C  C524  1  0.92815181  0.67883890  0.18796213  1
  C  C525  1  0.57375587  0.59662459  0.07360332  1
  O  O526  1  0.83599401  0.93203406  0.07421430  1
  H  H527  1  0.62340472  0.63090466  0.17350963  1
  O  O528  1  0.55517878  0.57018941  0.02589135  1
  C  C529  1  0.69087914  0.93032477  0.21582180  1
  O  O530  1  0.88942766  0.84170039  0.17646414  1
  C  C531  1  0.72009199  0.60856431  0.15591893  1
  Cu  Cu532  1  0.84827978  0.53372851  0.24768352  1
  C  C533  1  0.76275674  0.58759561  0.11576340  1
  H  H534  1  0.51858801  0.85876786  0.16067678  1
  C  C535  1  0.74370390  0.62027065  0.21450176  1
  Cu  Cu536  1  0.81469441  0.88562698  0.19511692  1
  C  C537  1  0.55021355  0.74349830  0.20346528  1
  O  O538  1  0.96815173  0.53416774  0.00389232  1
  H  H539  1  0.66485319  0.55782292  0.00360210  1
  C  C540  1  0.78629919  0.55723913  0.01289334  1
  O  O541  1  0.59902943  0.77808819  0.19600065  1
  H  H542  1  0.65979452  0.89516285  0.05918333  1
  C  C543  1  0.97577949  0.64557999  0.21236127  1
  O  O544  1  0.80182937  0.60531515  0.22463242  1
  Cu  Cu545  1  0.65404656  0.81248960  0.24566630  1
  O  O546  1  0.55142015  0.69370095  0.22585168  1
  O  O547  1  0.84467734  0.55926068  0.01827831  1
  C  C548  1  0.62647217  0.99329840  0.05686041  1
  O  O549  1  0.54574141  0.92363038  0.03874396  1
  C  C550  1  0.90458813  0.98976135  0.29473918  1
  C  C551  1  0.59736248  0.95831811  0.27353316  1
  C  C552  1  0.88969233  0.83317654  0.41552272  1
  O  O553  1  0.70982343  0.63386492  0.25292985  1
  C  C554  1  0.95637120  0.81564321  0.42647709  1
  O  O555  1  0.97430830  0.81113842  0.47974149  1
  O  O556  1  0.71042670  0.83860616  0.30249784  1
  H  H557  1  0.71287513  0.87096825  0.40369927  1
  C  C558  1  0.52042744  0.96329679  0.34705010  1
  C  C559  1  0.85763151  0.84655802  0.46724456  1
  H  H560  1  0.88744571  0.81629127  0.32456310  1
  C  C561  1  0.86173340  0.83119267  0.36221641  1
  C  C562  1  0.79899003  0.84281980  0.35738897  1
  C  C563  1  0.76364533  0.85779555  0.40525868  1
  C  C564  1  0.79510475  0.85632350  0.45646635  1
  C  C565  1  0.76895089  0.83577597  0.30266373  1
  O  O566  1  0.51157817  0.90597442  0.33768489  1
  H  H567  1  0.57752141  0.91461156  0.25730190  1
  O  O568  1  0.56301769  0.50081961  0.33673326  1
  C  C569  1  0.63776305  0.50718792  0.40837283  1
  O  O570  1  0.99113125  0.80324914  0.38903586  1
  C  C571  1  0.65709389  0.97376891  0.25346811  1
  O  O572  1  0.70327630  0.90778841  0.49780863  1
  C  C573  1  0.68786541  0.50332604  0.37130226  1
  O  O574  1  0.79883371  0.82778792  0.25743306  1
  C  C575  1  0.64342852  0.50716656  0.46747049  1
  C  C576  1  0.57227674  0.99195411  0.31777170  1
  H  H577  1  0.60687294  0.51155777  0.49871731  1
  C  C578  1  0.75836108  0.50106074  0.45038147  1
  C  C579  1  0.70587937  0.50523986  0.48497489  1
  H  H580  1  0.90902063  0.96064867  0.65051428  1
  O  O581  1  0.77597790  0.87145970  0.55259815  1
  C  C582  1  0.55253519  0.93465109  0.65393617  1
  Cu  Cu583  1  0.74803931  0.98985304  0.69832732  1
  O  O584  1  0.95657486  0.74193655  0.62608193  1
  H  H585  1  0.59155138  0.90869996  0.63527699  1
  H  H586  1  0.89138562  0.55067114  0.70492419  1
  O  O587  1  0.69488768  0.86883490  0.72665425  1
  O  O588  1  0.52018096  0.81086076  0.61274027  1
  C  C589  1  0.92617532  0.99312144  0.61810317  1
  H  H590  1  0.97371224  0.74006876  0.74023698  1
  O  O591  1  0.79739157  0.98156651  0.63116767  1
  H  H592  1  0.88267282  0.84659539  0.50860858  1
  Cu  Cu593  1  0.71131993  0.99198145  0.51793074  1
  C  C594  1  0.75552899  0.87782099  0.50629204  1
  C  C595  1  0.56010086  0.99244537  0.67833477  1
  O  O596  1  0.67057426  0.99347520  0.66261059  1
  C  C597  1  0.88297670  0.50361804  0.72176270  1
  C  C598  1  0.70997401  0.78359829  0.81071969  1
  O  O599  1  0.83880771  0.89604501  0.95539416  1
  O  O600  1  0.71323575  0.64320847  0.89552621  1
  C  C601  1  0.69669010  0.68011607  0.85211211  1
  C  C602  1  0.77397475  0.82641088  0.90630978  1
  C  C603  1  0.75535614  0.76450009  0.90408506  1
  Cu  Cu604  1  0.96489713  0.62429239  0.81609833  1
  C  C605  1  0.72205367  0.88772214  0.76746891  1
  C  C606  1  0.72847412  0.84516655  0.81817429  1
  C  C607  1  0.81580871  0.84146087  0.95422867  1
  C  C608  1  0.72135297  0.74520531  0.85644695  1
  O  O609  1  0.66632412  0.65959876  0.81514788  1
  C  C610  1  0.76047887  0.87008319  0.86463310  1
  H  H611  1  0.76319575  0.72863566  0.93872406  1
  H  H612  1  0.77796717  0.91929484  0.86643339  1
  C  C613  1  0.85914053  0.54549986  0.81558690  1
  O  O614  1  0.76361033  0.54585268  0.96293427  1
  O  O615  1  0.88597195  0.59557833  0.80142943  1
  Cu  Cu616  1  0.77585614  0.58811128  0.89036609  1
  O  O617  1  0.98331652  0.58493948  0.92670059  1
  H  H618  1  0.68209560  0.76689435  0.77595183  1
  O  O619  1  0.83163678  0.80088631  0.98811646  1
  O  O620  1  0.99748468  0.70569349  0.83762788  1
  O  O621  1  0.83740436  0.53602249  0.86356854  1
  C  C622  1  0.99461101  0.53908482  0.95387305  1
  O  O623  1  0.74398680  0.94444302  0.76676107  1
