# generated using pymatgen
data_ZnH8C11(N3O)2
_symmetry_space_group_name_H-M   'P 1'
_cell_length_a   16.37250060
_cell_length_b   19.42581096
_cell_length_c   16.17910170
_cell_angle_alpha   90.00000000
_cell_angle_beta   90.00000000
_cell_angle_gamma   90.00000000
_symmetry_Int_Tables_number   1
_chemical_formula_structural   ZnH8C11(N3O)2
_chemical_formula_sum   'Zn16 H128 C176 N96 O32'
_cell_volume   5145.74876092
_cell_formula_units_Z   16
loop_
 _symmetry_equiv_pos_site_id
 _symmetry_equiv_pos_as_xyz
  1  'x, y, z'
loop_
 _atom_site_type_symbol
 _atom_site_label
 _atom_site_symmetry_multiplicity
 _atom_site_fract_x
 _atom_site_fract_y
 _atom_site_fract_z
 _atom_site_occupancy
  N  N0  1  0.28730691  0.19135725  0.09077166  1
  H  H1  1  0.04704244  0.22739268  0.09573266  1
  C  C2  1  0.07704980  0.13335583  0.27682007  1
  H  H3  1  0.10735551  0.07517169  0.10494210  1
  H  H4  1  0.30256357  0.09651261  0.41976434  1
  C  C5  1  0.09714827  0.17900471  0.20629999  1
  N  N6  1  0.09282027  0.08210710  0.40482387  1
  C  C7  1  0.40696305  0.09643733  0.05635541  1
  C  C8  1  0.13027160  0.13111519  0.35230873  1
  N  N9  1  0.16302503  0.21617551  0.21941640  1
  N  N10  1  0.19571250  0.16981071  0.36282259  1
  N  N11  1  0.37866078  0.09649688  0.13180216  1
  N  N12  1  0.46946618  0.05607458  0.01492465  1
  H  H13  1  0.25202564  0.02499069  0.07095697  1
  C  C14  1  0.19916657  0.20981741  0.29615122  1
  N  N15  1  0.05019766  0.18201957  0.13300021  1
  C  C16  1  0.30657851  0.03988050  0.43585368  1
  H  H17  1  0.29380827  0.13909689  0.20465353  1
  C  C18  1  0.31987784  0.14131838  0.13914693  1
  H  H19  1  0.25589290  0.24573685  0.30479514  1
  N  N20  1  0.23940510  0.00736600  0.46930643  1
  C  C21  1  0.02679814  0.05723225  0.35645351  1
  N  N22  1  0.01315080  0.08755705  0.28635419  1
  H  H23  1  0.04740364  0.24056526  0.44384095  1
  H  H24  1  0.25472828  0.19736622  0.47932224  1
  O  O25  1  0.30037858  0.22505979  0.49825880  1
  C  C26  1  0.12261538  0.02129213  0.11874185  1
  C  C27  1  0.32626924  0.20124273  0.01628135  1
  H  H28  1  0.15527867  0.10705500  0.83292623  1
  C  C29  1  0.45728836  0.05734857  0.61176174  1
  C  C30  1  0.01204392  0.16949491  0.70884926  1
  H  H31  1  0.34035912  0.00092959  0.61079999  1
  H  H32  1  0.20406429  0.05858455  0.68730588  1
  C  C33  1  0.03346684  0.12838314  0.64105272  1
  H  H34  1  0.39415305  0.16256528  0.72820835  1
  H  H35  1  0.00596376  0.12510234  0.57717946  1
  Zn  Zn36  1  0.13575068  0.04552502  0.52573313  1
  N  N37  1  0.10254447  0.09542740  0.63004214  1
  C  C38  1  0.12808686  0.11988678  0.77313811  1
  C  C39  1  0.41696124  0.21026193  0.69783873  1
  C  C40  1  0.14996702  0.08876267  0.69796873  1
  C  C41  1  0.05599033  0.16076591  0.78204641  1
  C  C42  1  0.39882747  0.01103710  0.64394910  1
  C  C43  1  0.38349673  0.23249269  0.62420752  1
  C  C44  1  0.32186883  0.18963030  0.57653989  1
  C  C45  1  0.04371981  0.19053339  0.86572444  1
  O  O46  1  0.07680216  0.16874203  0.92403241  1
  N  N47  1  0.42528167  0.13484690  0.91945777  1
  H  H48  1  0.44910307  0.08801083  0.55645585  1
  C  C49  1  0.47424694  0.08258668  0.93700339  1
  C  C50  1  0.38268461  0.14848712  0.99171744  1
  O  O51  1  0.00318949  0.00948645  0.52669157  1
  O  O52  1  0.29911458  0.13416093  0.59585670  1
  C  C53  1  0.07646640  0.39597277  0.14988179  1
  N  N54  1  0.16609481  0.34947245  0.33959574  1
  C  C55  1  0.04715837  0.33132417  0.03579970  1
  N  N56  1  0.29869570  0.34443923  0.19266626  1
  H  H57  1  0.38094398  0.33633758  0.08546851  1
  Zn  Zn58  1  0.48190620  0.48867661  0.11152494  1
  H  H59  1  0.15914629  0.32259999  0.39341420  1
  N  N60  1  0.00425068  0.42101722  0.12624001  1
  N  N61  1  0.35198361  0.49836410  0.29332370  1
  N  N62  1  0.39175181  0.42586450  0.16535167  1
  N  N63  1  0.05882209  0.47781197  0.42661271  1
  N  N64  1  0.24577887  0.44504354  0.38487973  1
  C  C65  1  0.28842949  0.38872556  0.25559112  1
  C  C66  1  0.23234823  0.39806234  0.32537154  1
  C  C67  1  0.36123123  0.36554004  0.14263533  1
  H  H68  1  0.16293083  0.31608223  0.29489525  1
  H  H69  1  0.10571727  0.41591471  0.20660101  1
  N  N70  1  0.10639226  0.34124708  0.10148711  1
  H  H71  1  0.05685559  0.40817411  0.31971651  1
  C  C72  1  0.35188320  0.44187308  0.23732611  1
  H  H73  1  0.41828836  0.43180006  0.36530185  1
  Zn  Zn74  1  0.20700142  0.27399393  0.13159640  1
  O  O75  1  0.08445391  0.35918278  0.49516048  1
  C  C76  1  0.29938720  0.48975332  0.36060331  1
  C  C77  1  0.03189339  0.45430926  0.35064782  1
  H  H78  1  0.49989474  0.37354884  0.19702134  1
  Zn  Zn79  1  0.17025329  0.44867092  0.49188271  1
  O  O80  1  0.45947666  0.40442100  0.39603199  1
  H  H81  1  0.31399983  0.43994886  0.03064699  1
  H  H82  1  0.32128165  0.31425217  0.70787919  1
  H  H83  1  0.35010034  0.38287718  0.84205274  1
  N  N84  1  0.05369828  0.28515541  0.97949727  1
  C  C85  1  0.23287383  0.42568492  0.94913708  1
  C  C86  1  0.02606834  0.35362916  0.54688668  1
  H  H87  1  0.36832641  0.32033996  0.53990808  1
  C  C88  1  0.39528510  0.29978614  0.59612074  1
  O  O89  1  0.01058278  0.39360722  0.60140318  1
  H  H90  1  0.32944222  0.41856711  0.58569733  1
  C  C91  1  0.27419416  0.33978619  0.74535158  1
  C  C92  1  0.13815108  0.38082169  0.83223942  1
  N  N93  1  0.20047010  0.32911944  0.71138413  1
  C  C94  1  0.32079277  0.47456602  0.59011867  1
  H  H95  1  0.40909050  0.44567777  0.89529765  1
  H  H96  1  0.08081525  0.39304788  0.86852859  1
  O  O97  1  0.31808361  0.43355137  0.96956528  1
  N  N98  1  0.45995593  0.46106384  0.86468728  1
  C  C99  1  0.21721224  0.38995021  0.86682265  1
  C  C100  1  0.13480535  0.35062259  0.75332977  1
  C  C101  1  0.28790047  0.37006073  0.82241206  1
  H  H102  1  0.08004760  0.33790783  0.71685808  1
  N  N103  1  0.48529291  0.31757389  0.70953198  1
  C  C104  1  0.44599646  0.33970321  0.64321665  1
  H  H105  1  0.25733086  0.28522849  0.95713339  1
  O  O106  1  0.18372783  0.44159608  0.99892693  1
  N  N107  1  0.37530913  0.49948881  0.64311001  1
  H  H108  1  0.33914141  0.25237129  0.90685211  1
  H  H109  1  0.45513888  0.39518872  0.63126169  1
  N  N110  1  0.30807983  0.25363708  0.96187321  1
  C  C111  1  0.47305093  0.25382727  0.73666674  1
  C  C112  1  0.06966012  0.57870619  0.10550224  1
  Zn  Zn113  1  0.38714128  0.59767582  0.24706846  1
  C  C114  1  0.14380905  0.68601373  0.31415408  1
  N  N115  1  0.28613208  0.70617736  0.03765031  1
  H  H116  1  0.03088317  0.64319245  0.26105708  1
  C  C117  1  0.00781961  0.53226556  0.45104604  1
  C  C118  1  0.28650367  0.67695620  0.11335544  1
  H  H119  1  0.10730539  0.53102850  0.11572633  1
  C  C120  1  0.38126613  0.61681947  0.05618488  1
  H  H121  1  0.24449804  0.69888658  0.16099078  1
  C  C122  1  0.06112585  0.68715950  0.29079407  1
  N  N123  1  0.34382710  0.62661235  0.13025536  1
  N  N124  1  0.43698540  0.56483067  0.03830118  1
  N  N125  1  0.11539858  0.62775470  0.07618983  1
  H  H126  1  0.12763877  0.59045167  0.46838840  1
  O  O127  1  0.17947934  0.57521218  0.26342975  1
  O  O128  1  0.27645450  0.63496702  0.31749869  1
  C  C129  1  0.07606560  0.68484056  0.07711533  1
  C  C130  1  0.20234819  0.62596667  0.29757075  1
  H  H131  1  0.29615196  0.53413042  0.40347357  1
  N  N132  1  0.49455827  0.64677895  0.27220333  1
  C  C133  1  0.48939657  0.71613929  0.27832011  1
  C  C134  1  0.18556471  0.74312861  0.34686220  1
  H  H135  1  0.25299946  0.74772034  0.36076277  1
  H  H136  1  0.37626997  0.74670282  0.21909664  1
  O  O137  1  0.48815553  0.51521825  0.43345116  1
  H  H138  1  0.02919828  0.74302971  0.49523989  1
  H  H139  1  0.40074833  0.72697338  0.68134692  1
  C  C140  1  0.18118601  0.72666475  0.77671541  1
  N  N141  1  0.31990772  0.67475624  0.60542951  1
  N  N142  1  0.42133849  0.61583141  0.68041741  1
  C  C143  1  0.30774992  0.60580294  0.58940962  1
  C  C144  1  0.45802676  0.57681053  0.96171221  1
  N  N145  1  0.43747441  0.62213238  0.89846214  1
  C  C146  1  0.38735236  0.67747933  0.65185013  1
  H  H147  1  0.13826064  0.57234856  0.97530988  1
  C  C148  1  0.15392143  0.56492594  0.90845806  1
  H  H149  1  0.29325655  0.57645634  0.91829875  1
  C  C150  1  0.37960338  0.67409812  0.91460988  1
  H  H151  1  0.01373714  0.72397318  0.82832622  1
  H  H152  1  0.21070421  0.54080047  0.68500743  1
  C  C153  1  0.08900313  0.55402507  0.85247646  1
  C  C154  1  0.37161264  0.56603687  0.63813226  1
  C  C155  1  0.24367093  0.57017750  0.54323243  1
  N  N156  1  0.24980356  0.55305495  0.80168408  1
  H  H157  1  0.44716557  0.51279167  0.85330737  1
  N  N158  1  0.35894534  0.71835948  0.85112742  1
  C  C159  1  0.10803001  0.54303756  0.76936354  1
  C  C160  1  0.23475482  0.56536768  0.87982903  1
  C  C161  1  0.18953953  0.54575665  0.74832932  1
  N  N162  1  0.25438186  0.50132168  0.54951655  1
  H  H163  1  0.39488592  0.72311650  0.79781492  1
  H  H164  1  0.21946650  0.68054243  0.78481146  1
  N  N165  1  0.17902591  0.60577091  0.50565425  1
  H  H166  1  0.05747347  0.53953546  0.72398531  1
  H  H167  1  0.18181831  0.65715158  0.51294966  1
  Zn  Zn168  1  0.49512538  0.60733965  0.78692240  1
  C  C169  1  0.34623129  0.67275246  0.99354420  1
  N  N170  1  0.48365786  0.94854987  0.25912708  1
  C  C171  1  0.15291067  0.89495168  0.17416860  1
  N  N172  1  0.06492898  0.98762919  0.15928719  1
  C  C173  1  0.02729008  0.79276813  0.07586944  1
  O  O174  1  0.31985768  0.84295471  0.15647310  1
  N  N175  1  0.46523790  0.83192494  0.03483229  1
  H  H176  1  0.16335886  0.84935914  0.37528004  1
  H  H177  1  0.02522245  0.84988156  0.06324070  1
  H  H178  1  0.19317931  0.90173539  0.00966420  1
  C  C179  1  0.21943815  0.92797268  0.13712789  1
  H  H180  1  0.16829710  0.84316652  0.19482562  1
  C  C181  1  0.30330501  0.89911812  0.13550366  1
  N  N182  1  0.39997556  0.87574868  0.46182630  1
  N  N183  1  0.05889244  0.80850504  0.32795618  1
  C  C184  1  0.02305051  0.75096763  0.30132311  1
  C  C185  1  0.35133140  0.92944709  0.45264199  1
  H  H186  1  0.43074831  0.78376939  0.02759526  1
  C  C187  1  0.07584506  0.92505450  0.18749345  1
  C  C188  1  0.13613669  0.80153827  0.35330027  1
  O  O189  1  0.37394931  0.94235608  0.10047722  1
  H  H190  1  0.02453104  0.90668412  0.22660114  1
  H  H191  1  0.43067738  0.80730686  0.26656602  1
  H  H192  1  0.44584255  0.94121279  0.20710487  1
  C  C193  1  0.35469418  0.82627609  0.49993160  1
  Zn  Zn194  1  0.20882556  0.78525381  0.00286720  1
  H  H195  1  0.35037058  0.98637239  0.10797313  1
  H  H196  1  0.45488322  0.94642485  0.31542351  1
  H  H197  1  0.42577101  0.87253658  0.04953701  1
  C  C198  1  0.20031727  0.99605835  0.10480609  1
  N  N199  1  0.09869194  0.75500759  0.05998217  1
  N  N200  1  0.41777947  0.75671393  0.26229176  1
  C  C201  1  0.26199486  0.93989874  0.47463057  1
  N  N202  1  0.36998604  0.99698318  0.42433308  1
  H  H203  1  0.01246649  0.86753303  0.44692846  1
  N  N204  1  0.12562520  0.94395370  0.84918552  1
  N  N205  1  0.11808433  0.89045166  0.71079880  1
  O  O206  1  0.28410039  0.91828715  0.69047588  1
  N  N207  1  0.17890104  0.87545809  0.95678915  1
  C  C208  1  0.22626206  0.87742168  0.51160221  1
  H  H209  1  0.49980309  0.96376789  0.81884492  1
  H  H210  1  0.11736119  0.93583332  0.53420038  1
  C  C211  1  0.15139831  0.82317402  0.82097057  1
  C  C212  1  0.11276233  0.93811110  0.76902957  1
  O  O213  1  0.34902385  0.89527870  0.81435537  1
  N  N214  1  0.27679840  0.82403973  0.52579867  1
  C  C215  1  0.14776740  0.88607994  0.87937862  1
  N  N216  1  0.14836273  0.88857410  0.54451666  1
  H  H217  1  0.12461253  0.86204662  0.59651746  1
  H  H218  1  0.24538510  0.89029239  0.71774215  1
  C  C219  1  0.14315505  0.82777773  0.73077536  1
  N  N220  1  0.16467480  0.76153984  0.70217431  1
  H  H221  1  0.44949414  0.90408257  0.60115570  1
  C  C222  1  0.49498725  0.86454003  0.62312269  1
  H  H223  1  0.08944765  0.98652252  0.74266772  1
  C  C224  1  0.34902020  0.92817569  0.75396902  1
  H  H225  1  0.47518846  0.87284526  0.75755104  1
  C  C226  1  0.01247110  0.78655135  0.53866408  1
  H  H227  1  0.31624491  0.75457135  0.86702773  1
  H  H228  1  0.02922616  0.84515462  0.89658861  1
  N  N229  1  0.18078618  0.75963143  0.84818028  1
  Zn  Zn230  1  0.23477161  0.75037304  0.59101683  1
  C  C231  1  0.40806961  0.97810442  0.72025199  1
  C  C232  1  0.48509453  0.98935373  0.76072849  1
  H  H233  1  0.39648174  0.78232078  0.52078273  1
  N  N234  1  0.85139601  0.01018601  0.43246228  1
  C  C235  1  0.65895825  0.04162591  0.21371105  1
  C  C236  1  0.99057302  0.23780941  0.47946400  1
  H  H237  1  0.94867873  0.13494128  0.43427996  1
  N  N238  1  0.89411408  0.09324031  0.10780605  1
  N  N239  1  0.70364405  0.06923928  0.26894325  1
  C  C240  1  0.83561365  0.13605169  0.13027099  1
  N  N241  1  0.59718892  0.00715241  0.18987027  1
  Zn  Zn242  1  0.79232931  0.10087236  0.48155010  1
  H  H243  1  0.74283862  0.20511795  0.08186480  1
  C  C244  1  0.91424529  0.08994315  0.02692020  1
  H  H245  1  0.96559313  0.05508679  0.02329026  1
  C  C246  1  0.66869137  0.04636351  0.33910213  1
  N  N247  1  0.68482050  0.05373288  0.42581216  1
  C  C248  1  0.79251488  0.17181908  0.06726592  1
  Zn  Zn249  1  0.95329739  0.03685248  0.19017960  1
  H  H250  1  0.82019911  0.13678642  0.19752987  1
  C  C251  1  0.93382471  0.18236325  0.46976824  1
  H  H252  1  0.99939464  0.01040310  0.37840047  1
  C  C253  1  0.62788972  0.01175344  0.46427251  1
  H  H254  1  0.99145464  0.16383488  0.13682593  1
  H  H255  1  0.68219931  0.08296454  0.00048166  1
  H  H256  1  0.84707201  0.03915510  0.67079184  1
  C  C257  1  0.64552830  0.21265651  0.57167485  1
  H  H258  1  0.89652461  0.12018759  0.90101260  1
  H  H259  1  0.70317131  0.15686200  0.71041564  1
  C  C260  1  0.68239983  0.04529551  0.94927300  1
  C  C261  1  0.87686666  0.12628516  0.96311367  1
  H  H262  1  0.56806005  0.10246759  0.63284623  1
  H  H263  1  0.77776741  0.22736353  0.57521671  1
  H  H264  1  0.77128779  0.09569154  0.86689948  1
  C  C265  1  0.76944434  0.21189668  0.91811273  1
  H  H266  1  0.52183517  0.06524013  0.89484348  1
  H  H267  1  0.95075110  0.19875553  0.70818486  1
  O  O268  1  0.66914440  0.13727813  0.57711625  1
  C  C269  1  0.72069431  0.21310090  0.70608836  1
  H  H270  1  0.66123199  0.12231684  0.52345271  1
  C  C271  1  0.72880684  0.05175645  0.87770471  1
  O  O272  1  0.79533340  0.20116513  0.84226677  1
  C  C273  1  0.83721735  0.23663334  0.55151817  1
  H  H274  1  0.63863711  0.00191307  0.52749522  1
  C  C275  1  0.53885555  0.03507826  0.72723366  1
  O  O276  1  0.81673226  0.05403080  0.72218708  1
  C  C277  1  0.81325883  0.17122604  0.98361844  1
  H  H278  1  0.59702491  0.04803129  0.75519960  1
  N  N279  1  0.52835962  0.06521993  0.65344328  1
  H  H280  1  0.51299583  0.24588400  0.79201750  1
  O  O281  1  0.61780092  0.23925300  0.51299576  1
  C  C282  1  0.75901640  0.00388435  0.72877127  1
  C  C283  1  0.76060935  0.24739035  0.76893296  1
  C  C284  1  0.71600883  0.00311157  0.81263320  1
  N  N285  1  0.86202978  0.18181223  0.50413443  1
  C  C286  1  0.51346499  0.45871632  0.42232714  1
  N  N287  1  0.75003435  0.35552841  0.21877688  1
  C  C288  1  0.60297227  0.43992233  0.42745057  1
  C  C289  1  0.75995893  0.47213900  0.17574680  1
  C  C290  1  0.74270093  0.46486364  0.44489640  1
  C  C291  1  0.98293841  0.38527427  0.05803341  1
  C  C292  1  0.82526806  0.37974981  0.22703472  1
  N  N293  1  0.56175491  0.36564863  0.19058037  1
  H  H294  1  0.87241265  0.34429362  0.25112178  1
  N  N295  1  0.83697799  0.44742492  0.20103843  1
  C  C296  1  0.70507985  0.40918440  0.19075808  1
  C  C297  1  0.61938537  0.41680943  0.17153869  1
  N  N298  1  0.60093867  0.48042200  0.13726364  1
  H  H299  1  0.57974795  0.33205258  0.23516393  1
  H  H300  1  0.57173259  0.33327609  0.39958161  1
  N  N301  1  0.76470316  0.40020049  0.43188645  1
  H  H302  1  0.73931499  0.30920479  0.38989138  1
  C  C303  1  0.62331610  0.36990351  0.41443538  1
  C  C304  1  0.70742015  0.35600068  0.41269647  1
  H  H305  1  0.84298184  0.44766125  0.07284324  1
  N  N306  1  0.84102566  0.42354189  0.01645372  1
  N  N307  1  0.98028791  0.49534916  0.31040723  1
  H  H308  1  0.80551499  0.48957455  0.45399197  1
  Zn  Zn309  1  0.94478899  0.49535481  0.18556789  1
  C  C310  1  0.66235119  0.48838527  0.44727978  1
  C  C311  1  0.69129960  0.46846238  0.65921206  1
  N  N312  1  0.92346554  0.34366683  0.93585688  1
  O  O313  1  0.71708105  0.25011195  0.94264600  1
  O  O314  1  0.75116251  0.42690194  0.69557373  1
  C  C315  1  0.63929235  0.37905149  0.91226035  1
  N  N316  1  0.70902221  0.41438894  0.89572560  1
  Zn  Zn317  1  0.82772622  0.35711383  0.85778298  1
  C  C318  1  0.54265517  0.44135632  0.87055539  1
  H  H319  1  0.78279353  0.42143210  0.99025438  1
  C  C320  1  0.89024214  0.29127661  0.56444173  1
  N  N321  1  0.56214436  0.38193278  0.90620530  1
  O  O322  1  0.62462451  0.45016680  0.64537851  1
  C  C323  1  0.69421813  0.32318896  0.64156721  1
  C  C324  1  0.73812554  0.35479662  0.70528711  1
  H  H325  1  0.66815009  0.35767647  0.59139357  1
  H  H326  1  0.65940833  0.32233343  0.91926020  1
  N  N327  1  0.76926821  0.31454809  0.76497608  1
  H  H328  1  0.87062997  0.33951134  0.59814531  1
  C  C329  1  0.69028147  0.48094339  0.86641205  1
  C  C330  1  0.96808646  0.29159868  0.53011124  1
  C  C331  1  0.98789899  0.29396003  0.93300365  1
  O  O332  1  0.98647446  0.25082174  0.86845671  1
  C  C333  1  0.60466357  0.49265862  0.84442095  1
  C  C334  1  0.68575556  0.25166960  0.64084826  1
  C  C335  1  0.91334674  0.38566523  0.99932395  1
  H  H336  1  0.64893373  0.54283294  0.46235179  1
  H  H337  1  0.82471584  0.68683893  0.11617417  1
  N  N338  1  0.73870990  0.53200254  0.14777241  1
  H  H339  1  0.56916523  0.55417251  0.26906843  1
  N  N340  1  0.98983565  0.57424604  0.13430846  1
  N  N341  1  0.88262768  0.63236370  0.43181487  1
  N  N342  1  0.69426577  0.68747818  0.03236952  1
  C  C343  1  0.99080812  0.69414478  0.11152504  1
  C  C344  1  0.65474076  0.65729353  0.33772804  1
  H  H345  1  0.84455121  0.54958914  0.24433776  1
  C  C346  1  0.56808085  0.61156781  0.28988819  1
  H  H347  1  0.77856445  0.60773377  0.29118115  1
  N  N348  1  0.84012980  0.58383698  0.29833054  1
  H  H349  1  0.63651422  0.58002876  0.11232328  1
  H  H350  1  0.81577674  0.59881645  0.14288075  1
  N  N351  1  0.64461950  0.59652664  0.31535018  1
  C  C352  1  0.94083154  0.62919719  0.12723342  1
  C  C353  1  0.88656237  0.58590272  0.36596099  1
  N  N354  1  0.68815151  0.71079273  0.37197365  1
  Zn  Zn355  1  0.79870919  0.70991862  0.43553714  1
  N  N356  1  0.85739953  0.63942335  0.13236476  1
  C  C357  1  0.95890165  0.54242420  0.36980433  1
  C  C358  1  0.66125916  0.52872948  0.13115666  1
  N  N359  1  0.56069568  0.70653822  0.00415284  1
  C  C360  1  0.93847290  0.61602132  0.49263057  1
  C  C361  1  0.62455372  0.66143724  0.00290399  1
  O  O362  1  0.61515241  0.72834930  0.83261301  1
  C  C363  1  0.99769112  0.55892645  0.87317844  1
  C  C364  1  0.65461210  0.58247199  0.59360207  1
  H  H365  1  0.84233930  0.53753581  0.67083904  1
  H  H366  1  0.92858945  0.64532630  0.55193909  1
  N  N367  1  0.73551018  0.53847127  0.85117712  1
  C  C368  1  0.68233310  0.58380423  0.82178998  1
  C  C369  1  0.69834926  0.64143857  0.56904611  1
  C  C370  1  0.71112328  0.53754358  0.63383374  1
  H  H371  1  0.60953234  0.60901815  0.98362994  1
  N  N372  1  0.60398543  0.55973119  0.81563853  1
  C  C373  1  0.78784222  0.62918083  0.60567190  1
  C  C374  1  0.79163938  0.56590688  0.64064254  1
  N  N375  1  0.76303896  0.67882341  0.55445858  1
  O  O376  1  0.96880473  0.57230767  0.93955237  1
  H  H377  1  0.58888208  0.57239590  0.57852678  1
  H  H378  1  0.69998105  0.63636993  0.80507127  1
  H  H379  1  0.65772458  0.72098784  0.66728956  1
  H  H380  1  0.89586685  0.56846085  0.82635630  1
  H  H381  1  0.77135516  0.71108968  0.87638194  1
  O  O382  1  0.94765469  0.55332157  0.79945491  1
  N  N383  1  0.88769570  0.72245827  0.84013951  1
  C  C384  1  0.82496969  0.74614269  0.88312121  1
  N  N385  1  0.99584836  0.57358744  0.51292545  1
  H  H386  1  0.50502971  0.53523674  0.95318202  1
  C  C387  1  0.85686296  0.98537773  0.35436819  1
  C  C388  1  0.63214818  0.76131122  0.35965094  1
  C  C389  1  0.87285012  0.90241928  0.27147523  1
  N  N390  1  0.82198983  0.81703774  0.39896723  1
  C  C391  1  0.81211172  0.87454105  0.44655258  1
  C  C392  1  0.67972802  0.75500776  0.05735934  1
  C  C393  1  0.54768599  0.82909799  0.05062472  1
  Zn  Zn394  1  0.52564500  0.87316793  0.44512558  1
  N  N395  1  0.87710266  0.83735470  0.24927998  1
  H  H396  1  0.71579239  0.90427318  0.12409478  1
  C  C397  1  0.84832145  0.84032372  0.32622870  1
  C  C398  1  0.54766636  0.75654536  0.32091249  1
  C  C399  1  0.83844924  0.94305839  0.42784152  1
  C  C400  1  0.67694045  0.85867441  0.09982111  1
  N  N401  1  0.59920122  0.87877910  0.07733185  1
  N  N402  1  0.57971475  0.97268159  0.41599764  1
  Zn  Zn403  1  0.84707419  0.79386589  0.13414237  1
  N  N404  1  0.72458061  0.80550415  0.09602855  1
  N  N405  1  0.57774710  0.81398813  0.35187039  1
  N  N406  1  0.87381113  0.97272502  0.27169045  1
  C  C407  1  0.55678660  0.98328679  0.25760226  1
  Zn  Zn408  1  0.56604735  0.98424054  0.06762438  1
  H  H409  1  0.96611450  0.76560885  0.27462498  1
  C  C410  1  0.58931285  0.76441073  0.03699570  1
  C  C411  1  0.60005126  0.99557071  0.33752261  1
  N  N412  1  0.96358676  0.75946084  0.10659746  1
  O  O413  1  0.84140700  0.93024569  0.02248754  1
  O  O414  1  0.74546726  0.96112345  0.67804783  1
  H  H415  1  0.91780104  0.75645375  0.70635717  1
  C  C416  1  0.59085016  0.78811350  0.57600184  1
  H  H417  1  0.75006654  0.82872726  0.55392581  1
  O  O418  1  0.95927733  0.95553950  0.96878340  1
  H  H419  1  0.89887184  0.89327248  0.69516764  1
  H  H420  1  0.76868107  0.90938774  0.56527877  1
  N  N421  1  0.63073333  0.99355060  0.96308835  1
  H  H422  1  0.65069738  0.91889550  0.76821499  1
  C  C423  1  0.92823772  0.86036120  0.64623283  1
  H  H424  1  0.52342515  0.78728824  0.91510148  1
  C  C425  1  0.89964326  0.84822650  0.92923885  1
  H  H426  1  0.77368851  0.83304894  0.94676972  1
  C  C427  1  0.61017052  0.76165995  0.65717799  1
  C  C428  1  0.82830436  0.81068110  0.92282440  1
  N  N429  1  0.54104064  0.83819737  0.56218706  1
  O  O430  1  0.52147835  0.81150310  0.86041718  1
  C  C431  1  0.90118794  0.91680382  0.97847738  1
  N  N432  1  0.77948789  0.86849132  0.52714041  1
  C  C433  1  0.56402743  0.79098497  0.72103653  1
  H  H434  1  0.57640297  0.90874673  0.92044988  1
  C  C435  1  0.93657037  0.78888793  0.65625459  1
  C  C436  1  0.62222891  0.94596070  0.90293807  1
  C  C437  1  0.66164108  0.95031669  0.82620580  1
  C  C438  1  0.96438306  0.96996793  0.57443033  1
  C  C439  1  0.96829687  0.81916580  0.88880717  1
  C  C440  1  0.96112981  0.89110169  0.57741292  1
  C  C441  1  0.57543469  0.77439192  0.80804341  1
  C  C442  1  0.50731158  0.84371237  0.70589789  1
  H  H443  1  0.62201419  0.77023838  0.52102208  1
  C  C444  1  0.96049952  0.75574528  0.85031710  1
  C  C445  1  0.99839686  0.85176668  0.51327575  1
  N  N446  1  0.97861301  0.75353580  0.60045283  1
  O  O447  1  0.91122696  0.99325072  0.62115188  1
