# generated using pymatgen
data_Zn2H4C10N3O4
_symmetry_space_group_name_H-M   'P 1'
_cell_length_a   18.88099422
_cell_length_b   35.83086668
_cell_length_c   7.84225133
_cell_angle_alpha   90.00000000
_cell_angle_beta   90.00000000
_cell_angle_gamma   90.00000000
_symmetry_Int_Tables_number   1
_chemical_formula_structural   Zn2H4C10N3O4
_chemical_formula_sum   'Zn32 H64 C160 N48 O64'
_cell_volume   5305.45858615
_cell_formula_units_Z   16
loop_
 _symmetry_equiv_pos_site_id
 _symmetry_equiv_pos_as_xyz
  1  'x, y, z'
loop_
 _atom_site_type_symbol
 _atom_site_label
 _atom_site_symmetry_multiplicity
 _atom_site_fract_x
 _atom_site_fract_y
 _atom_site_fract_z
 _atom_site_occupancy
  C  C0  1  0.04245185  0.13171535  0.13487318  1
  C  C1  1  0.34471838  0.09405478  0.27811220  1
  C  C2  1  0.24700847  0.15340844  0.21941084  1
  C  C3  1  0.25578541  0.06846743  0.09222471  1
  C  C4  1  0.05849886  0.14840553  0.30766867  1
  C  C5  1  0.05600428  0.09181195  0.11722607  1
  Zn  Zn6  1  0.45310736  0.01781365  0.36188427  1
  C  C7  1  0.28100780  0.07300470  0.25908871  1
  N  N8  1  0.33516299  0.21304748  0.34260159  1
  C  C9  1  0.39207929  0.09909318  0.43694534  1
  C  C10  1  0.12956213  0.23519602  0.46657905  1
  C  C11  1  0.20872193  0.15103882  0.09015279  1
  C  C12  1  0.14045457  0.15578085  0.49162823  1
  N  N13  1  0.44310433  0.07377873  0.45722059  1
  H  H14  1  0.25946842  0.05656647  0.36249534  1
  H  H15  1  0.16234599  0.13375984  0.04648937  1
  N  N16  1  0.10448051  0.12659456  0.41300692  1
  N  N17  1  0.05159729  0.18639617  0.33716709  1
  C  C18  1  0.11038683  0.18931366  0.44307755  1
  H  H19  1  0.24324075  0.14018306  0.35004517  1
  C  C20  1  0.37357948  0.10584884  0.12113279  1
  C  C21  1  0.34386459  0.24183178  0.27504424  1
  H  H22  1  0.04670279  0.07518359  0.22680912  1
  H  H23  1  0.21221227  0.05200275  0.04902921  1
  Zn  Zn24  1  0.29882112  0.18847555  0.02443982  1
  H  H25  1  0.42594192  0.12117362  0.12023216  1
  N  N26  1  0.33835455  0.22198663  0.84549114  1
  O  O27  1  0.23694727  0.16431925  0.68969325  1
  O  O28  1  0.14401331  0.00996302  0.68226615  1
  H  H29  1  0.04095300  0.24922224  0.67277099  1
  N  N30  1  0.06756615  0.09829427  0.81133864  1
  C  C31  1  0.04562660  0.13351261  0.82450301  1
  H  H32  1  0.04159522  0.14698856  0.70077398  1
  Zn  Zn33  1  0.35873912  0.19523586  0.59903436  1
  H  H34  1  0.07608440  0.04790260  0.91364847  1
  C  C35  1  0.06742803  0.07785301  0.95437321  1
  Zn  Zn36  1  0.08752949  0.07873950  0.57832772  1
  O  O37  1  0.17104702  0.24072747  0.58144919  1
  O  O38  1  0.43875291  0.17694749  0.80434790  1
  O  O39  1  0.20352070  0.10772456  0.62623630  1
  H  H40  1  0.36035050  0.10307333  0.83257320  1
  C  C41  1  0.45165907  0.12029929  0.65229341  1
  C  C42  1  0.19798458  0.14264626  0.61142738  1
  C  C43  1  0.47270132  0.14756953  0.78815924  1
  C  C44  1  0.48366055  0.08708343  0.58610414  1
  N  N45  1  0.01707103  0.03350584  0.53722372  1
  N  N46  1  0.27952186  0.08101738  0.94678723  1
  C  C47  1  0.34201751  0.09728418  0.96298413  1
  N  N48  1  0.39474828  0.12877252  0.55470713  1
  H  H49  1  0.02026025  0.18163845  0.97919498  1
  C  C50  1  0.03404324  0.15156587  0.98085829  1
  C  C51  1  0.02191704  0.41750765  0.09053380  1
  H  H52  1  0.36867730  0.29867895  0.26735410  1
  C  C53  1  0.35384667  0.27428572  0.17731118  1
  N  N54  1  0.33803584  0.40491147  0.31820668  1
  Zn  Zn55  1  0.02429018  0.35793145  0.12382868  1
  C  C56  1  0.29640536  0.46845555  0.36018893  1
  Zn  Zn57  1  0.25150702  0.49659539  0.01371807  1
  C  C58  1  0.31538919  0.43652883  0.24567961  1
  O  O59  1  0.35637449  0.32008378  0.48239125  1
  C  C60  1  0.09356178  0.40549253  0.14734167  1
  H  H61  1  0.15355704  0.35928997  0.37289646  1
  O  O62  1  0.10277477  0.25966698  0.37680611  1
  Zn  Zn63  1  0.27274258  0.35686320  0.27907036  1
  C  C64  1  0.13364027  0.36736562  0.10182460  1
  Zn  Zn65  1  0.41903343  0.37518175  0.21779035  1
  N  N66  1  0.17006968  0.35819323  0.24428824  1
  H  H67  1  0.12572401  0.42405633  0.23037945  1
  H  H68  1  0.44449186  0.47971267  0.31482482  1
  C  C69  1  0.30977055  0.44111053  0.06099747  1
  N  N70  1  0.33311450  0.35273212  0.04278467  1
  O  O71  1  0.27936376  0.49918803  0.28274828  1
  C  C72  1  0.00220221  0.45992722  0.11751154  1
  C  C73  1  0.38905162  0.45783864  0.00519106  1
  O  O74  1  0.43726633  0.43646403  0.02568521  1
  C  C75  1  0.34246486  0.28003046  0.00046864  1
  H  H76  1  0.03754765  0.28531660  0.95901518  1
  N  N77  1  0.00403178  0.48486694  0.97198800  1
  H  H78  1  0.21439224  0.39151059  0.77357588  1
  O  O79  1  0.11700471  0.36367526  0.62606824  1
  C  C80  1  0.15847848  0.44593810  0.82633437  1
  C  C81  1  0.33892491  0.33284289  0.77504575  1
  C  C82  1  0.34857582  0.30856146  0.62595027  1
  H  H83  1  0.10679611  0.43842323  0.77001960  1
  C  C84  1  0.21532094  0.41916226  0.84141340  1
  C  C85  1  0.31802344  0.38062750  0.91913306  1
  O  O86  1  0.35314722  0.27256451  0.65516825  1
  C  C87  1  0.34069195  0.31997679  0.94816930  1
  C  C88  1  0.27456737  0.41495656  0.93878393  1
  N  N89  1  0.16504968  0.47920183  0.89204777  1
  N  N90  1  0.32965649  0.37097926  0.74428031  1
  C  C91  1  0.06840720  0.37888091  0.68882050  1
  O  O92  1  0.29639201  0.46698390  0.51708855  1
  Zn  Zn93  1  0.37122001  0.40497991  0.54982191  1
  C  C94  1  0.34226589  0.25543464  0.84739134  1
  H  H95  1  0.17530493  0.36975040  0.99845695  1
  C  C96  1  0.00979433  0.39719541  0.77231796  1
  O  O97  1  0.39435559  0.48946502  0.95083208  1
  C  C98  1  0.49735505  0.49382576  0.55766937  1
  N  N99  1  0.49152727  0.42326249  0.50876148  1
  Zn  Zn100  1  0.15293924  0.64755971  0.45757385  1
  C  C101  1  0.11275351  0.73066585  0.48829615  1
  C  C102  1  0.09530448  0.58611905  0.17952897  1
  C  C103  1  0.15663948  0.62931457  0.07609475  1
  N  N104  1  0.49199702  0.56863584  0.43223340  1
  C  C105  1  0.19976282  0.66693116  0.10050398  1
  N  N106  1  0.12612611  0.61996266  0.22343960  1
  O  O107  1  0.22019918  0.67369298  0.24513295  1
  O  O108  1  0.07970876  0.73495319  0.36102179  1
  C  C109  1  0.46134615  0.53987094  0.35242400  1
  C  C110  1  0.46457011  0.50192640  0.39754986  1
  C  C111  1  0.02230518  0.58388280  0.26971004  1
  H  H112  1  0.02082600  0.52562465  0.36194137  1
  H  H113  1  0.43315530  0.55325019  0.24282424  1
  N  N114  1  0.11207220  0.57162068  0.01980910  1
  H  H115  1  0.23841633  0.74341042  0.00618802  1
  O  O116  1  0.19722466  0.62060974  0.67194337  1
  O  O117  1  0.14979245  0.56592304  0.69095291  1
  C  C118  1  0.16600240  0.59646956  0.75497997  1
  Zn  Zn119  1  0.12979238  0.72232123  0.89025541  1
  Zn  Zn120  1  0.09506739  0.51953226  0.91162678  1
  O  O121  1  0.40680551  0.73823569  0.83127945  1
  C  C122  1  0.39254899  0.62101689  0.68061974  1
  C  C123  1  0.14411684  0.60129376  0.94357117  1
  O  O124  1  0.10976277  0.69802472  0.55988850  1
  Zn  Zn125  1  0.38467859  0.67872106  0.75868705  1
  H  H126  1  0.31022087  0.60190480  0.84746082  1
  C  C127  1  0.34726794  0.62244971  0.79659657  1
  O  O128  1  0.21139815  0.68734157  0.97752166  1
  H  H129  1  0.41410316  0.59880753  0.59459420  1
  O  O130  1  0.36040700  0.74917518  0.58915606  1
  N  N131  1  0.03760611  0.74654287  0.93286438  1
  O  O132  1  0.11084220  0.81723178  0.24918574  1
  N  N133  1  0.32427104  0.80937045  0.22794840  1
  O  O134  1  0.04028323  0.91903488  0.31555483  1
  H  H135  1  0.37371287  0.85570586  0.14339448  1
  C  C136  1  0.15675120  0.82410110  0.34756458  1
  C  C137  1  0.29145682  0.92698420  0.36202345  1
  H  H138  1  0.30595706  0.93050853  0.06040703  1
  C  C139  1  0.47622103  0.91973444  0.06617771  1
  C  C140  1  0.34353658  0.83174268  0.09385129  1
  O  O141  1  0.31645231  0.90181582  0.43583676  1
  O  O142  1  0.18700246  0.85649694  0.34514192  1
  Zn  Zn143  1  0.19098621  0.88036169  0.10853270  1
  C  C144  1  0.26789615  0.77048549  0.02432892  1
  C  C145  1  0.28654663  0.77814566  0.19310110  1
  O  O146  1  0.26701664  0.95287987  0.29334918  1
  O  O147  1  0.46265341  0.98413760  0.15113023  1
  C  C148  1  0.47903783  0.95008204  0.18494009  1
  C  C149  1  0.03723494  0.99784463  0.49935297  1
  Zn  Zn150  1  0.33782898  0.82390536  0.46977534  1
  H  H151  1  0.26934507  0.76229705  0.30693552  1
  C  C152  1  0.18329869  0.79633503  0.49084041  1
  O  O153  1  0.49884657  0.94277704  0.34181176  1
  N  N154  1  0.49885359  0.88492104  0.11169311  1
  N  N155  1  0.42365286  0.82336949  0.58824660  1
  O  O156  1  0.01608642  0.92675197  0.81272987  1
  C  C157  1  0.44066661  0.79926981  0.69949520  1
  C  C158  1  0.07297186  0.84089360  0.74629257  1
  Zn  Zn159  1  0.06938302  0.90977971  0.56843247  1
  C  C160  1  0.16226002  0.76167280  0.55221646  1
  C  C161  1  0.44845307  0.91722057  0.89548042  1
  C  C162  1  0.11101905  0.98997023  0.58793015  1
  C  C163  1  0.40021741  0.94189325  0.78139550  1
  N  N164  1  0.23397448  0.81302976  0.59824163  1
  N  N165  1  0.19200151  0.75370333  0.70405136  1
  C  C166  1  0.29244728  0.92381339  0.92913500  1
  N  N167  1  0.24214177  0.89939846  0.90777388  1
  Zn  Zn168  1  0.20789752  0.87135998  0.69861419  1
  H  H169  1  0.33684108  0.84492624  0.82812593  1
  N  N170  1  0.10738795  0.86906414  0.69336648  1
  C  C171  1  0.32454881  0.94382495  0.78186910  1
  H  H172  1  0.29770771  0.95412490  0.66501093  1
  C  C173  1  0.23560441  0.78623673  0.72913056  1
  C  C174  1  0.43152059  0.95434198  0.62855401  1
  H  H175  1  0.10817533  0.82135383  0.80234404  1
  C  C176  1  0.27780024  0.79479504  0.88368252  1
  C  C177  1  0.02043950  0.77517554  0.88095082  1
  C  C178  1  0.32341497  0.82520340  0.93170064  1
  N  N179  1  0.45535476  0.88204502  0.83397274  1
  C  C180  1  0.48342025  0.86326679  0.97295864  1
  Zn  Zn181  1  0.47794520  0.86737773  0.55819365  1
  N  N182  1  0.44791786  0.96587668  0.50131922  1
  C  C183  1  0.39667942  0.75940037  0.70543002  1
  O  O184  1  0.13566240  0.95665859  0.55752351  1
  H  H185  1  0.89100247  0.07981175  0.17888121  1
  C  C186  1  0.95178135  0.03560118  0.47073390  1
  H  H187  1  0.90768414  0.15452983  0.19931969  1
  C  C188  1  0.91560882  0.07318598  0.44994655  1
  C  C189  1  0.89890419  0.13349899  0.30113121  1
  C  C190  1  0.89810947  0.09465803  0.30191497  1
  N  N191  1  0.93422514  0.00278599  0.37801210  1
  N  N192  1  0.91149288  0.15291814  0.44364677  1
  O  O193  1  0.75133041  0.00405292  0.13305796  1
  Zn  Zn194  1  0.94631937  0.20584526  0.44699935  1
  O  O195  1  0.75198725  0.18528476  0.06271517  1
  H  H196  1  0.84254237  0.22565988  0.03923037  1
  H  H197  1  0.92272411  0.15235332  0.69465814  1
  C  C198  1  0.89411449  0.21515708  0.79855714  1
  C  C199  1  0.79038301  0.16499971  0.99319113  1
  C  C200  1  0.88812912  0.23186524  0.96082448  1
  O  O201  1  0.52206403  0.14073609  0.89370169  1
  H  H202  1  0.85110682  0.19541182  0.74299358  1
  O  O203  1  0.57560967  0.05754730  0.75907996  1
  C  C204  1  0.90884441  0.13343675  0.58592292  1
  O  O205  1  0.83148750  0.14622398  0.92592150  1
  H  H206  1  0.91323556  0.07916807  0.72715521  1
  N  N207  1  0.94759798  0.22443967  0.69636117  1
  C  C208  1  0.91178489  0.09427109  0.60069740  1
  C  C209  1  0.54017597  0.05560365  0.63331439  1
  Zn  Zn210  1  0.62745077  0.12282802  0.81988407  1
  C  C211  1  0.70567650  0.08938028  0.70236257  1
  C  C212  1  0.72887414  0.12281950  0.69985573  1
  H  H213  1  0.72447389  0.06264618  0.65133375  1
  O  O214  1  0.53817770  0.02902555  0.52880474  1
  O  O215  1  0.91807556  0.03715593  0.92037620  1
  O  O216  1  0.79477292  0.00637057  0.59752131  1
  C  C217  1  0.95155344  0.01371446  0.93963703  1
  H  H218  1  0.77891092  0.13470035  0.64655264  1
  O  O219  1  0.78610467  0.23670583  0.56592074  1
  C  C220  1  0.99767966  0.24581892  0.76277747  1
  Zn  Zn221  1  0.93026651  0.43353345  0.44712024  1
  C  C222  1  0.73060731  0.34418353  0.11744086  1
  C  C223  1  0.85642672  0.28250812  0.41505943  1
  N  N224  1  0.95781225  0.46817406  0.24241426  1
  C  C225  1  0.55956426  0.36915736  0.41485159  1
  O  O226  1  0.83296067  0.46750129  0.37034034  1
  O  O227  1  0.61253889  0.34922913  0.43710071  1
  C  C228  1  0.88227864  0.31799037  0.36700720  1
  O  O229  1  0.51736226  0.36296286  0.28827828  1
  C  C230  1  0.91261277  0.49005711  0.16041444  1
  C  C231  1  0.86802408  0.35489096  0.43192337  1
  N  N232  1  0.92373244  0.31428896  0.22023375  1
  N  N233  1  0.88794727  0.25402527  0.32040220  1
  C  C234  1  0.92054418  0.27514402  0.19720474  1
  O  O235  1  0.90104268  0.38196661  0.36345828  1
  C  C236  1  0.84260912  0.49197177  0.26172174  1
  C  C237  1  0.76302244  0.31556339  0.06354015  1
  H  H238  1  0.67453269  0.34824463  0.15377848  1
  H  H239  1  0.59841154  0.45413479  0.35900828  1
  C  C240  1  0.59740018  0.47135819  0.23649544  1
  Zn  Zn241  1  0.82833553  0.36189860  0.02460244  1
  C  C242  1  0.93687120  0.25850830  0.02374788  1
  H  H243  1  0.74719523  0.28532652  0.05667658  1
  O  O244  1  0.68809197  0.37403622  0.78146052  1
  C  C245  1  0.83976313  0.47829939  0.74353556  1
  H  H246  1  0.82461028  0.45288962  0.67406467  1
  Zn  Zn247  1  0.59888120  0.47473681  0.96347371  1
  N  N248  1  0.90640217  0.40648420  0.97773053  1
  C  C249  1  0.89253962  0.47233762  0.85550480  1
  C  C250  1  0.66422153  0.40696972  0.76312031  1
  C  C251  1  0.91275681  0.43129078  0.84267429  1
  N  N252  1  0.96170093  0.42194618  0.70505447  1
  C  C253  1  0.97963070  0.39648805  0.95009901  1
  C  C254  1  0.80189791  0.26948733  0.55474979  1
  O  O255  1  0.69706502  0.43271279  0.82170330  1
  C  C256  1  0.59102837  0.41457558  0.66533423  1
  N  N257  1  0.56846991  0.44799798  0.72197216  1
  C  C258  1  0.93291687  0.49712537  0.97214174  1
  Zn  Zn259  1  0.71593389  0.34124513  0.55270613  1
  O  O260  1  0.82324096  0.35903183  0.55111058  1
  C  C261  1  0.99592221  0.26508632  0.91888748  1
  O  O262  1  0.77007495  0.29329332  0.64830808  1
  C  C263  1  0.51318439  0.45427734  0.61759183  1
  C  C264  1  0.54641161  0.39966659  0.53362524  1
  H  H265  1  0.59014634  0.70194387  0.33190069  1
  N  N266  1  0.89233802  0.71919942  0.28950799  1
  C  C267  1  0.66362931  0.67890203  0.11177340  1
  H  H268  1  0.81479927  0.69605489  0.16072997  1
  C  C269  1  0.97739482  0.61580512  0.26852338  1
  O  O270  1  0.79249098  0.51494580  0.23375818  1
  H  H271  1  0.75320932  0.67330281  0.43313351  1
  C  C272  1  0.83374640  0.69776328  0.29449554  1
  C  C273  1  0.63815119  0.72218054  0.32731239  1
  O  O274  1  0.68328896  0.71341887  0.22053009  1
  C  C275  1  0.61904625  0.74873532  0.44546466  1
  O  O276  1  0.61727822  0.65882254  0.15943003  1
  C  C277  1  0.99467748  0.55379001  0.36596189  1
  C  C278  1  0.60480155  0.50548319  0.19987827  1
  C  C279  1  0.91788033  0.61712890  0.37831116  1
  Zn  Zn280  1  0.93188248  0.73931959  0.06929626  1
  C  C281  1  0.80322458  0.68698838  0.44713531  1
  C  C282  1  0.91920532  0.72786473  0.44015385  1
  H  H283  1  0.61859225  0.53043210  0.27168092  1
  Zn  Zn284  1  0.78873934  0.54592299  0.02241421  1
  H  H285  1  0.88704669  0.64224224  0.41529304  1
  H  H286  1  0.96191315  0.74904236  0.42434656  1
  H  H287  1  0.99834079  0.64122892  0.20832283  1
  N  N288  1  0.89719564  0.58937535  0.46982465  1
  O  O289  1  0.69336270  0.58563457  0.03918199  1
  O  O290  1  0.90436978  0.56402091  0.00686640  1
  C  C291  1  0.93044091  0.55615284  0.45877420  1
  C  C292  1  0.95839808  0.65757445  0.85681518  1
  C  C293  1  0.89080855  0.71941718  0.60438953  1
  C  C294  1  0.93631481  0.53973778  0.92594086  1
  H  H295  1  0.91739467  0.72763743  0.72094195  1
  N  N296  1  0.76229123  0.69945019  0.90598090  1
  C  C297  1  0.78697479  0.68009312  0.75745743  1
  C  C298  1  0.81694260  0.51638282  0.68142605  1
  C  C299  1  0.71360443  0.64329312  0.85750119  1
  N  N300  1  0.76207951  0.64367884  0.73496201  1
  N  N301  1  0.80631284  0.54600260  0.77558157  1
  C  C302  1  0.70858890  0.67535673  0.96575706  1
  H  H303  1  0.90648887  0.53544780  0.55159997  1
  Zn  Zn304  1  0.81830243  0.59905562  0.65291503  1
  C  C305  1  0.68051557  0.60086177  0.89558365  1
  C  C306  1  0.82810306  0.69749707  0.61576188  1
  O  O307  1  0.65285219  0.58444499  0.77964971  1
  H  H308  1  0.55532481  0.51959983  0.75969094  1
  H  H309  1  0.81807131  0.52536647  0.54861186  1
  O  O310  1  0.98317685  0.54415942  0.82121646  1
  O  O311  1  0.98674230  0.65697896  0.72333430  1
  O  O312  1  0.93243661  0.65702040  0.99166629  1
  C  C313  1  0.52983333  0.56076473  0.56483262  1
  C  C314  1  0.53170885  0.52503645  0.63270131  1
  H  H315  1  0.55350742  0.58578485  0.63050963  1
  C  C316  1  0.98948166  0.97767719  0.39474301  1
  C  C317  1  0.73777791  0.93717402  0.11965163  1
  N  N318  1  0.70219910  0.79045613  0.08096787  1
  O  O319  1  0.93660818  0.92888793  0.20771058  1
  N  N320  1  0.79716660  0.93882968  0.20413931  1
  H  H321  1  0.73846212  0.80877072  0.12339759  1
  O  O322  1  0.68127332  0.86197143  0.31287260  1
  C  C323  1  0.71573519  0.87289707  0.20057979  1
  C  C324  1  0.98877959  0.94134033  0.29233990  1
  H  H325  1  0.58002147  0.84049361  0.17568350  1
  O  O326  1  0.78987982  0.85656327  0.14659181  1
  C  C327  1  0.57672285  0.81934380  0.07286786  1
  C  C328  1  0.71187171  0.97684426  0.07875481  1
  C  C329  1  0.70469072  0.90113598  0.07213919  1
  Zn  Zn330  1  0.85374976  0.89048490  0.31298145  1
  Zn  Zn331  1  0.84051164  0.99040472  0.27347438  1
  C  C332  1  0.63294244  0.79287346  0.05823237  1
  H  H333  1  0.60666888  0.87221799  0.42787768  1
  H  H334  1  0.65742054  0.77180830  0.47145605  1
  O  O335  1  0.65740789  0.98335673  0.00782064  1
  C  C336  1  0.62868886  0.89410390  0.66374410  1
  O  O337  1  0.62691818  0.80602641  0.67809475  1
  N  N338  1  0.87171695  0.77885870  0.97017924  1
  C  C339  1  0.72598448  0.88681451  0.90332925  1
  H  H340  1  0.92044716  0.98272470  0.65912301  1
  H  H341  1  0.80964919  0.92840204  0.84958454  1
  C  C342  1  0.70191501  0.88964296  0.71700437  1
  H  H343  1  0.73949634  0.87779995  0.62638218  1
  C  C344  1  0.84521212  0.83869258  0.81256803  1
  C  C345  1  0.57218537  0.78983943  0.68476860  1
  N  N346  1  0.85729611  0.87128644  0.87015625  1
  C  C347  1  0.83955039  0.83591847  0.61215550  1
  C  C348  1  0.89650783  0.80664550  0.88447798  1
  C  C349  1  0.79651507  0.86183736  0.93176678  1
  N  N350  1  0.58858101  0.88522731  0.53738718  1
  H  H351  1  0.93278208  0.91325472  0.93153478  1
  Zn  Zn352  1  0.62015973  0.90914617  0.91486678  1
  C  C353  1  0.97153474  0.80702018  0.84954574  1
  C  C354  1  0.83025721  0.95126371  0.76952344  1
  C  C355  1  0.90236307  0.95829803  0.73895378  1
  O  O356  1  0.81550393  0.80757334  0.56475788  1
  H  H357  1  0.96343566  0.86000860  0.71553731  1
  O  O358  1  0.87867208  0.85621180  0.51606857  1
  H  H359  1  0.72703436  0.97960680  0.72310651  1
  C  C360  1  0.95089591  0.93342004  0.82801269  1
  C  C361  1  0.50944906  0.80251084  0.78730232  1
  C  C362  1  0.51451335  0.82382514  0.94229950  1
  C  C363  1  0.78515263  0.97942999  0.69431064  1
  Zn  Zn364  1  0.55435491  0.76309311  0.93534443  1
  Zn  Zn365  1  0.77209434  0.75695017  0.95643376  1
  O  O366  1  0.56463777  0.75149484  0.54061499  1
  C  C367  1  0.99936491  0.83885972  0.77111048  1
