# generated using pymatgen
data_Zn4H18C36O13
_symmetry_space_group_name_H-M   'P 1'
_cell_length_a   17.91924355
_cell_length_b   17.47820782
_cell_length_c   16.87280528
_cell_angle_alpha   90.00000000
_cell_angle_beta   90.00000000
_cell_angle_gamma   90.00000000
_symmetry_Int_Tables_number   1
_chemical_formula_structural   Zn4H18C36O13
_chemical_formula_sum   'Zn16 H72 C144 O52'
_cell_volume   5284.49955368
_cell_formula_units_Z   4
loop_
 _symmetry_equiv_pos_site_id
 _symmetry_equiv_pos_as_xyz
  1  'x, y, z'
loop_
 _atom_site_type_symbol
 _atom_site_label
 _atom_site_symmetry_multiplicity
 _atom_site_fract_x
 _atom_site_fract_y
 _atom_site_fract_z
 _atom_site_occupancy
  O  O0  1  0.42509521  0.35823591  0.12639410  1
  O  O1  1  0.48428623  0.02753107  0.06460674  1
  O  O2  1  0.41305768  0.40748589  0.00502363  1
  H  H3  1  0.40832848  0.45880438  0.23741662  1
  O  O4  1  0.39978383  0.12359705  0.20027094  1
  C  C5  1  0.45708973  0.13728285  0.24278019  1
  Zn  Zn6  1  0.40585100  0.12459299  0.07311203  1
  C  C7  1  0.42345864  0.41575641  0.07737099  1
  O  O8  1  0.46082538  0.21429028  0.02950171  1
  C  C9  1  0.43127623  0.49326670  0.11068809  1
  O  O10  1  0.49967776  0.19519421  0.22817725  1
  H  H11  1  0.01874769  0.07004702  0.21179542  1
  C  C12  1  0.06016238  0.00077004  0.01611567  1
  O  O13  1  0.31102827  0.13915332  0.00248234  1
  H  H14  1  0.04907741  0.39667676  0.00904762  1
  C  C15  1  0.04256703  0.33446297  0.01451212  1
  C  C16  1  0.05401579  0.15363650  0.02160949  1
  C  C17  1  0.16918384  0.09094150  0.00941262  1
  C  C18  1  0.09334720  0.07991017  0.01996719  1
  C  C19  1  0.18124382  0.17162396  0.00769955  1
  H  H20  1  0.21514175  0.04874789  0.00916029  1
  O  O21  1  0.28134515  0.26008301  0.01165940  1
  C  C22  1  0.11075422  0.21340712  0.01068230  1
  C  C23  1  0.25971545  0.19221847  0.01056965  1
  C  C24  1  0.36389640  0.35693222  0.43388106  1
  H  H25  1  0.39445397  0.20857067  0.31743107  1
  C  C26  1  0.27693383  0.21505716  0.35565929  1
  C  C27  1  0.48037360  0.08002872  0.30105207  1
  C  C28  1  0.39466553  0.30130551  0.38529588  1
  C  C29  1  0.28742187  0.36172310  0.46141455  1
  H  H30  1  0.26001423  0.16653972  0.32084795  1
  H  H31  1  0.45227528  0.29690306  0.37070994  1
  H  H32  1  0.04170828  0.43891560  0.39377783  1
  H  H33  1  0.40207961  0.40014341  0.45865832  1
  C  C34  1  0.35170016  0.23810222  0.35459589  1
  C  C35  1  0.22039529  0.31731764  0.44232086  1
  H  H36  1  0.46632363  0.16472944  0.42872998  1
  C  C37  1  0.21625861  0.24843538  0.39537380  1
  H  H38  1  0.16157956  0.22135610  0.38816861  1
  C  C39  1  0.46341731  0.18014885  0.49238983  1
  O  O40  1  0.05492262  0.28146015  0.44611539  1
  C  C41  1  0.15981221  0.35680482  0.48219840  1
  H  H42  1  0.34684220  0.18964389  0.47397498  1
  C  C43  1  0.02100515  0.49538997  0.37071705  1
  C  C44  1  0.08118624  0.33376331  0.49008314  1
  H  H45  1  0.37684876  0.01319168  0.29273808  1
  C  C46  1  0.43408300  0.01682817  0.32132698  1
  H  H47  1  0.30848393  0.23771258  0.60493283  1
  C  C48  1  0.36889741  0.22551397  0.59449936  1
  C  C49  1  0.39201118  0.19696648  0.51968774  1
  C  C50  1  0.40971741  0.25043635  0.66161679  1
  H  H51  1  0.15440810  0.45629164  0.56977603  1
  O  O52  1  0.03631446  0.37953305  0.52638886  1
  C  C53  1  0.48845338  0.23619960  0.67167309  1
  H  H54  1  0.37569466  0.27686953  0.70849692  1
  C  C55  1  0.18559306  0.41668593  0.53033650  1
  C  C56  1  0.31097643  0.48835749  0.53704256  1
  C  C57  1  0.26160858  0.42185513  0.51356161  1
  O  O58  1  0.37920410  0.49010085  0.51752029  1
  Zn  Zn59  1  0.39925211  0.28716920  0.97130605  1
  O  O60  1  0.43200866  0.26825313  0.83700858  1
  C  C61  1  0.10881660  0.29583138  0.99913815  1
  H  H62  1  0.16017578  0.32172168  0.98108065  1
  H  H63  1  0.39595987  0.85565721  0.06815821  1
  C  C64  1  0.44430626  0.56217993  0.06641067  1
  H  H65  1  0.29065910  0.78287791  0.02393710  1
  H  H66  1  0.49210731  0.73167761  0.17448716  1
  C  C67  1  0.44827644  0.57912525  0.20334118  1
  O  O68  1  0.02901081  0.82059508  0.14001267  1
  C  C69  1  0.46902994  0.61647052  0.13163023  1
  H  H70  1  0.13467866  0.78677458  0.24011380  1
  Zn  Zn71  1  0.07117635  0.82861697  0.02011254  1
  C  C72  1  0.49378697  0.69364581  0.12339684  1
  C  C73  1  0.42680432  0.50200816  0.19317670  1
  C  C74  1  0.03470285  0.71413547  0.22757043  1
  O  O75  1  0.10469329  0.94339352  0.01724498  1
  C  C76  1  0.39090474  0.84206223  0.00290366  1
  C  C77  1  0.07445384  0.55434577  0.36559395  1
  C  C78  1  0.12533160  0.68402648  0.31548945  1
  C  C79  1  0.42998555  0.90431950  0.41297580  1
  H  H80  1  0.13048597  0.54580766  0.39741429  1
  C  C81  1  0.19289229  0.69562586  0.36580188  1
  O  O82  1  0.37956078  0.69692468  0.46885985  1
  Zn  Zn83  1  0.42677914  0.59064330  0.46596924  1
  C  C84  1  0.07130386  0.62200504  0.31899397  1
  O  O85  1  0.38474740  0.87299730  0.36664382  1
  O  O86  1  0.23993842  0.74303774  0.33997680  1
  H  H87  1  0.03141277  0.90831294  0.34142365  1
  O  O88  1  0.21176013  0.65677465  0.42406606  1
  Zn  Zn89  1  0.36124118  0.75063787  0.36359023  1
  O  O90  1  0.43578189  0.68400152  0.29174368  1
  O  O91  1  0.43847302  0.87991515  0.48282684  1
  C  C92  1  0.44294802  0.61449461  0.28488423  1
  C  C93  1  0.46865085  0.97483252  0.37947715  1
  C  C94  1  0.05123642  0.81950207  0.43114895  1
  O  O95  1  0.43604646  0.56890370  0.34351885  1
  H  H96  1  0.08033868  0.78657452  0.38609823  1
  C  C97  1  0.10556205  0.73682268  0.25838272  1
  C  C98  1  0.00920540  0.64257004  0.26407057  1
  C  C99  1  0.02662018  0.89412417  0.40604573  1
  C  C100  1  0.00234264  0.95378469  0.45637883  1
  O  O101  1  0.27834330  0.54473439  0.56639600  1
  O  O102  1  0.39126193  0.79283412  0.64471153  1
  C  C103  1  0.32873875  0.76852152  0.67116064  1
  O  O104  1  0.28254192  0.74271457  0.62478118  1
  Zn  Zn105  1  0.44258913  0.77674547  0.52631869  1
  C  C106  1  0.04128333  0.78823976  0.50825766  1
  Zn  Zn107  1  0.29116896  0.66976128  0.52783251  1
  C  C108  1  0.01321991  0.80849192  0.58436734  1
  H  H109  1  0.00713153  0.76712145  0.63406375  1
  H  H110  1  0.06689725  0.73078489  0.50149817  1
  C  C111  1  0.44678218  0.87692956  0.95429708  1
  O  O112  1  0.12332749  0.70050976  0.86705365  1
  C  C113  1  0.32828371  0.80498850  0.97860418  1
  C  C114  1  0.17118028  0.73414831  0.90843024  1
  C  C115  1  0.35477597  0.79860718  0.82410083  1
  H  H116  1  0.42120884  0.52272003  0.94462705  1
  C  C117  1  0.30726647  0.79073842  0.89764820  1
  C  C118  1  0.24129390  0.75581689  0.86741022  1
  C  C119  1  0.43929037  0.57081712  0.98322153  1
  C  C120  1  0.24527324  0.73940767  0.78664448  1
  O  O121  1  0.15934799  0.75169809  0.98003444  1
  Zn  Zn122  1  0.01026746  0.74003424  0.86546653  1
  C  C123  1  0.42571140  0.83066601  0.81289780  1
  C  C124  1  0.46473848  0.87419186  0.87298367  1
  C  C125  1  0.47078365  0.63679748  0.94639493  1
  H  H126  1  0.47210111  0.63615814  0.88172085  1
  H  H127  1  0.48525668  0.90927146  0.99323371  1
  H  H128  1  0.20229161  0.71023000  0.75118975  1
  C  C129  1  0.31464437  0.76899615  0.75855497  1
  H  H130  1  0.45400788  0.83135016  0.75484920  1
  C  C131  1  0.66514358  0.20960770  0.10346497  1
  O  O132  1  0.62431835  0.26491112  0.12486383  1
  C  C133  1  0.79281768  0.06871574  0.11062638  1
  O  O134  1  0.65523963  0.17847789  0.03801651  1
  H  H135  1  0.92833318  0.34923060  0.05219947  1
  C  C136  1  0.78498282  0.13534922  0.15656708  1
  H  H137  1  0.74718830  0.05922721  0.06734755  1
  C  C138  1  0.72674739  0.19259024  0.16179393  1
  H  H139  1  0.79679524  0.43152889  0.12782604  1
  C  C140  1  0.80351642  0.42081118  0.06504435  1
  C  C141  1  0.77691745  0.34707711  0.04639169  1
  C  C142  1  0.93791815  0.23185954  0.04689931  1
  H  H143  1  0.75339576  0.31388229  0.09586105  1
  H  H144  1  0.88101186  0.23172219  0.07601197  1
  C  C145  1  0.73812521  0.24242846  0.22431209  1
  C  C146  1  0.84408578  0.16050618  0.21695842  1
  C  C147  1  0.84612139  0.00944095  0.12821647  1
  H  H148  1  0.94394658  0.10611073  0.04817064  1
  C  C149  1  0.97466888  0.16143256  0.03719674  1
  C  C150  1  0.54120767  0.01934287  0.02123348  1
  C  C151  1  0.83878476  0.47930125  0.02156251  1
  C  C152  1  0.95929590  0.07321058  0.19853800  1
  C  C153  1  0.97188820  0.30476387  0.03935172  1
  C  C154  1  0.91871400  0.00985382  0.16281192  1
  C  C155  1  0.91906658  0.13807616  0.22789961  1
  Zn  Zn156  1  0.50594647  0.26067398  0.12417409  1
  H  H157  1  0.62116052  0.13095268  0.24772376  1
  H  H158  1  0.70348323  0.29366518  0.23712557  1
  O  O159  1  0.93936862  0.11766234  0.49208257  1
  O  O160  1  0.90216836  0.26943344  0.34647634  1
  C  C161  1  0.55450055  0.06968149  0.33581400  1
  C  C162  1  0.83860747  0.27529577  0.31945674  1
  O  O163  1  0.79036433  0.32102870  0.34944533  1
  H  H164  1  0.90566829  0.45642905  0.36079221  1
  C  C165  1  0.80785778  0.22285852  0.25664610  1
  C  C166  1  0.69500804  0.08226786  0.33544116  1
  H  H167  1  0.73966082  0.09506549  0.29564734  1
  C  C168  1  0.62350957  0.09548056  0.30171909  1
  C  C169  1  0.70584230  0.04891544  0.41160242  1
  C  C170  1  0.94857212  0.49734194  0.33983143  1
  H  H171  1  0.76475476  0.05881688  0.41917739  1
  Zn  Zn172  1  0.94518265  0.23847058  0.47191400  1
  H  H173  1  0.94992985  0.18047309  0.26563359  1
  C  C174  1  0.53938425  0.00959722  0.39769836  1
  H  H175  1  0.99606375  0.01078771  0.42718200  1
  C  C176  1  0.66149558  0.01175345  0.46950817  1
  Zn  Zn177  1  0.76734156  0.30263152  0.47917981  1
  H  H178  1  0.58478945  0.17420811  0.49552871  1
  O  O179  1  0.85625521  0.48871966  0.49847727  1
  C  C180  1  0.61450128  0.22370365  0.64448116  1
  C  C181  1  0.78496019  0.48818673  0.50408569  1
  Zn  Zn182  1  0.85175675  0.23431395  0.63147681  1
  O  O183  1  0.70245962  0.21127715  0.53166218  1
  C  C184  1  0.54096729  0.21142685  0.60801173  1
  C  C185  1  0.93334657  0.09103586  0.56006224  1
  C  C186  1  0.95281113  0.01331707  0.58622253  1
  Zn  Zn187  1  0.91662460  0.39135690  0.55670259  1
  O  O188  1  0.74209731  0.20123962  0.65310736  1
  O  O189  1  0.91211011  0.13106575  0.62053166  1
  O  O190  1  0.86724434  0.29201381  0.52945831  1
  C  C191  1  0.68757878  0.21259931  0.60481333  1
  C  C192  1  0.53084666  0.18580793  0.53039041  1
  O  O193  1  0.93288692  0.40067911  0.68496260  1
  C  C194  1  0.60627759  0.24230080  0.72454641  1
  C  C195  1  0.52920591  0.25192531  0.74284231  1
  O  O196  1  0.74879321  0.42827887  0.50819340  1
  H  H197  1  0.93324591  0.03207639  0.71656732  1
  O  O198  1  0.88445857  0.30013717  0.74154246  1
  C  C199  1  0.89820689  0.36997222  0.74333273  1
  C  C200  1  0.79005247  0.30285861  0.97869969  1
  C  C201  1  0.85520386  0.39893780  0.88997940  1
  O  O202  1  0.54284520  0.27861005  0.88597543  1
  Zn  Zn203  1  0.54602291  0.18194631  0.96548032  1
  C  C204  1  0.88622416  0.41949619  0.81214055  1
  H  H205  1  0.65241378  0.25264403  0.76437096  1
  C  C206  1  0.82455996  0.32486447  0.90640067  1
  C  C207  1  0.86007231  0.46721769  0.94038670  1
  H  H208  1  0.82378901  0.28251081  0.85725502  1
  O  O209  1  0.54795273  0.05995297  0.96062815  1
  H  H210  1  0.77075700  0.24534801  0.98293937  1
  C  C211  1  0.50242393  0.26676406  0.82683739  1
  C  C212  1  0.90876001  0.49621947  0.81479313  1
  C  C213  1  0.70698240  0.90147324  0.03889938  1
  O  O214  1  0.93154225  0.74300944  0.14401397  1
  O  O215  1  0.81506909  0.82776773  0.04867404  1
  C  C216  1  0.66898353  0.86669989  0.10442243  1
  C  C217  1  0.69304429  0.80579971  0.15453430  1
  C  C218  1  0.59805649  0.96328216  0.04771805  1
  H  H219  1  0.74262604  0.77308259  0.13342861  1
  H  H220  1  0.89329945  0.65162161  0.22423303  1
  H  H221  1  0.83026744  0.95712535  0.09504180  1
  C  C222  1  0.59945071  0.91373720  0.11523981  1
  Zn  Zn223  1  0.89799225  0.74830109  0.01560490  1
  C  C224  1  0.54668388  0.91643166  0.17858849  1
  H  H225  1  0.85374207  0.53385414  0.04896157  1
  H  H226  1  0.94322230  0.95200153  0.15834975  1
  C  C227  1  0.66160153  0.77981282  0.22659069  1
  C  C228  1  0.55186993  0.87369564  0.24871886  1
  C  C229  1  0.77981035  0.87903974  0.00831214  1
  H  H230  1  0.53030316  0.79216964  0.06672128  1
  C  C231  1  0.99589185  0.76246202  0.16921447  1
  C  C232  1  0.50732903  0.73369956  0.05264772  1
  O  O233  1  0.99187752  0.99051947  0.01886015  1
  H  H234  1  0.50566849  0.96325275  0.17652949  1
  C  C235  1  0.66261171  0.95628838  0.00037056  1
  C  C236  1  0.93509096  0.61623295  0.25561582  1
  C  C237  1  0.60172702  0.81173955  0.26969418  1
  C  C238  1  0.84674028  0.64798655  0.45833286  1
  H  H239  1  0.58989580  0.78949426  0.33097147  1
  H  H240  1  0.88360887  0.84121512  0.41452196  1
  H  H241  1  0.94002847  0.71299456  0.42411420  1
  C  C242  1  0.84610452  0.79142323  0.43257313  1
  C  C243  1  0.87955928  0.71648656  0.43477206  1
  C  C244  1  0.90762213  0.54937059  0.28978731  1
  H  H245  1  0.84791776  0.54115167  0.28530541  1
  H  H246  1  0.77263902  0.87927470  0.44597698  1
  C  C247  1  0.70891248  0.77657669  0.48199672  1
  C  C248  1  0.77338383  0.81556015  0.45632705  1
  H  H249  1  0.68990893  0.73307207  0.25574683  1
  H  H250  1  0.88240251  0.59420665  0.46245001  1
  C  C251  1  0.76864298  0.63765721  0.47667418  1
  H  H252  1  0.51221040  0.89016909  0.29484370  1
  C  C253  1  0.70907037  0.69608023  0.48965739  1
  C  C254  1  0.58722088  0.98586717  0.46184781  1
  O  O255  1  0.55802523  0.74044691  0.52600852  1
  H  H256  1  0.62206980  0.52658701  0.54310272  1
  O  O257  1  0.52813994  0.61608978  0.53840141  1
  C  C258  1  0.97392639  0.91854285  0.67324360  1
  C  C259  1  0.95012919  0.99440395  0.66771458  1
  C  C260  1  0.57391868  0.66927855  0.52562559  1
  C  C261  1  0.98411702  0.95241858  0.54001626  1
  C  C262  1  0.66465324  0.56517023  0.51591736  1
  C  C263  1  0.74087036  0.56305151  0.50188336  1
  H  H264  1  0.68803270  0.98898603  0.52438049  1
  C  C265  1  0.65040032  0.64365606  0.51238173  1
  C  C266  1  0.99147268  0.88683312  0.59658618  1
  H  H267  1  0.66031747  0.80871284  0.50024428  1
  H  H268  1  0.56283762  0.95161503  0.51182967  1
  C  C269  1  0.90515409  0.60757700  0.90921428  1
  H  H270  1  0.51339818  0.75193705  0.92714359  1
  H  H271  1  0.93495572  0.53012987  0.76838071  1
  O  O272  1  0.97867710  0.80541611  0.96420976  1
  O  O273  1  0.81334537  0.91364597  0.95316322  1
  O  O274  1  0.94857746  0.92440785  0.80584234  1
  Zn  Zn275  1  0.93245078  0.90726798  0.93932005  1
  C  C276  1  0.50088290  0.70684397  0.97337709  1
  O  O277  1  0.92658046  0.65049918  0.85435975  1
  H  H278  1  0.67762758  0.98903298  0.94444766  1
  C  C279  1  0.89500103  0.52448006  0.89071245  1
  H  H280  1  0.51680771  0.90519260  0.86172238  1
  O  O281  1  0.99018954  0.81234403  0.76209080  1
  O  O282  1  0.88400556  0.63605240  0.97505991  1
  C  C283  1  0.97413012  0.88306488  0.75235811  1
