# generated using pymatgen
data_Zn2H8C15(N2O)4
_symmetry_space_group_name_H-M   'P 1'
_cell_length_a   20.71367165
_cell_length_b   21.42254072
_cell_length_c   18.30615282
_cell_angle_alpha   90.00000000
_cell_angle_beta   90.00000000
_cell_angle_gamma   90.00000000
_symmetry_Int_Tables_number   1
_chemical_formula_structural   Zn2H8C15(N2O)4
_chemical_formula_sum   'Zn32 H128 C240 N128 O64'
_cell_volume   8123.16262973
_cell_formula_units_Z   16
loop_
 _symmetry_equiv_pos_site_id
 _symmetry_equiv_pos_as_xyz
  1  'x, y, z'
loop_
 _atom_site_type_symbol
 _atom_site_label
 _atom_site_symmetry_multiplicity
 _atom_site_fract_x
 _atom_site_fract_y
 _atom_site_fract_z
 _atom_site_occupancy
  N  N0  1  0.11333278  0.06290132  0.26135084  1
  O  O1  1  0.24915154  0.01961743  0.23540867  1
  C  C2  1  0.45920957  0.05885724  0.11927588  1
  C  C3  1  0.19176182  0.12190566  0.46976644  1
  C  C4  1  0.38977311  0.01636454  0.14119468  1
  N  N5  1  0.15898011  0.19887629  0.30384064  1
  N  N6  1  0.41465947  0.20405417  0.27232041  1
  Zn  Zn7  1  0.16166828  0.13428594  0.21149975  1
  C  C8  1  0.25646431  0.03149156  0.43295255  1
  N  N9  1  0.34761219  0.11480319  0.36098751  1
  C  C10  1  0.27688887  0.20059202  0.16835740  1
  N  N11  1  0.35689329  0.04036742  0.19495518  1
  C  C12  1  0.46809259  0.20780923  0.30661507  1
  C  C13  1  0.03075731  0.14075781  0.13930863  1
  N  N14  1  0.10076840  0.21201588  0.31978895  1
  N  N15  1  0.29076636  0.19960725  0.38466989  1
  Zn  Zn16  1  0.36943908  0.11877410  0.25758710  1
  N  N17  1  0.04528512  0.01821220  0.34365560  1
  C  C18  1  0.25038136  0.09798745  0.43417578  1
  N  N19  1  0.09071322  0.16583764  0.13903805  1
  C  C20  1  0.06393656  0.07186837  0.30793512  1
  O  O21  1  0.45283860  0.11457442  0.12835596  1
  Zn  Zn22  1  0.43290393  0.10898836  0.40822764  1
  H  H23  1  0.04557351  0.11868541  0.32174518  1
  C  C24  1  0.30350791  0.00308313  0.19752945  1
  N  N25  1  0.42743827  0.01197587  0.39927078  1
  C  C26  1  0.04650727  0.21529686  0.15040130  1
  C  C27  1  0.29733996  0.13839359  0.39463619  1
  O  O28  1  0.05594011  0.06943364  0.03653266  1
  C  C29  1  0.15139125  0.01716580  0.49387446  1
  Zn  Zn30  1  0.17583769  0.16870208  0.05794415  1
  C  C31  1  0.01659891  0.09432123  0.07506639  1
  N  N32  1  0.30156543  0.18454695  0.23070144  1
  N  N33  1  0.48836768  0.15978318  0.34460936  1
  N  N34  1  0.22349327  0.17088107  0.15031444  1
  H  H35  1  0.36366084  0.21429368  0.49324238  1
  N  N36  1  0.12581734  0.24306330  0.01551088  1
  H  H37  1  0.29973432  0.01648358  0.40145487  1
  C  C38  1  0.13411757  0.00382608  0.27474814  1
  H  H39  1  0.40462217  0.21752432  0.13788496  1
  Zn  Zn40  1  0.33474936  0.24894445  0.30827134  1
  H  H41  1  0.18505796  0.17550010  0.47528705  1
  Zn  Zn42  1  0.20752803  0.24461469  0.38496447  1
  C  C43  1  0.40267101  0.19303806  0.53095249  1
  N  N44  1  0.41790891  0.21333660  0.60269521  1
  C  C45  1  0.31684969  0.16417343  0.75792673  1
  N  N46  1  0.02488608  0.05873729  0.79110465  1
  O  O47  1  0.11872173  0.11645517  0.68638971  1
  N  N48  1  0.30705022  0.20559965  0.69801269  1
  C  C49  1  0.07795925  0.02127683  0.77586065  1
  C  C50  1  0.22207961  0.14463495  0.72451954  1
  O  O51  1  0.16345027  0.22815885  0.59383872  1
  O  O52  1  0.47953354  0.22439417  0.73664992  1
  H  H53  1  0.08958515  0.00310767  0.71622962  1
  C  C54  1  0.21946967  0.22559485  0.61167844  1
  O  O55  1  0.15060230  0.05922203  0.77857487  1
  C  C56  1  0.15895812  0.10400228  0.73010985  1
  C  C57  1  0.24729034  0.19372938  0.67525097  1
  N  N58  1  0.33914506  0.01805088  0.85982038  1
  Zn  Zn59  1  0.26483263  0.07018451  0.86820982  1
  N  N60  1  0.26553868  0.13056891  0.77590105  1
  C  C61  1  0.47198588  0.17956826  0.62347136  1
  N  N62  1  0.22676991  0.14278700  0.97251185  1
  H  H63  1  0.36037482  0.15717773  0.79177580  1
  H  H64  1  0.06070693  0.22331170  0.81277661  1
  N  N65  1  0.39416278  0.03072546  0.84088261  1
  N  N66  1  0.44196438  0.14967782  0.50907299  1
  C  C67  1  0.48506449  0.13803963  0.56411588  1
  H  H68  1  0.10959970  0.19436120  0.91937737  1
  N  N69  1  0.20510281  0.09367967  0.94822040  1
  C  C70  1  0.10264751  0.23914781  0.95090998  1
  H  H71  1  0.30271000  0.24731215  0.59386619  1
  O  O72  1  0.35954641  0.02779367  0.66258203  1
  H  H73  1  0.10366478  0.10461533  0.53539742  1
  C  C74  1  0.14453583  0.08309521  0.50120456  1
  H  H75  1  0.34763824  0.36272322  0.18986990  1
  N  N76  1  0.11777383  0.33194769  0.45379749  1
  N  N77  1  0.17479818  0.31203871  0.44233901  1
  N  N78  1  0.35693257  0.34175291  0.30649282  1
  C  C79  1  0.26342828  0.30116454  0.09985175  1
  O  O80  1  0.37437127  0.29487487  0.45137142  1
  C  C81  1  0.38130125  0.35108173  0.44382907  1
  C  C82  1  0.35735583  0.36318309  0.06924287  1
  C  C83  1  0.43872813  0.44331785  0.04937047  1
  N  N84  1  0.37879708  0.42135072  0.04540355  1
  H  H85  1  0.47904133  0.41291984  0.06783785  1
  O  O86  1  0.39897022  0.38526419  0.49373483  1
  C  C87  1  0.37388149  0.25654023  0.11614432  1
  C  C88  1  0.40121847  0.31002874  0.08821854  1
  C  C89  1  0.37177422  0.38002544  0.36239175  1
  C  C90  1  0.28821898  0.35460211  0.06905821  1
  N  N91  1  0.37263411  0.43967797  0.26408488  1
  O  O92  1  0.17549054  0.43116605  0.16866998  1
  C  C93  1  0.38147454  0.44173536  0.33549311  1
  C  C94  1  0.16932017  0.46628416  0.11996098  1
  Zn  Zn95  1  0.04873590  0.27244735  0.38973850  1
  H  H96  1  0.14329752  0.31311763  0.09201805  1
  C  C97  1  0.35726209  0.37911699  0.24808456  1
  C  C98  1  0.11935529  0.30258726  0.04303866  1
  H  H99  1  0.45380078  0.31180394  0.08200590  1
  C  C100  1  0.33515572  0.47052715  0.01657186  1
  H  H101  1  0.29458190  0.48907044  0.05246157  1
  H  H102  1  0.21096784  0.29425716  0.10746063  1
  H  H103  1  0.04649045  0.45599179  0.17222124  1
  N  N104  1  0.01767681  0.40562290  0.49768737  1
  H  H105  1  0.47437061  0.31125863  0.40744078  1
  N  N106  1  0.00804334  0.49547443  0.06704424  1
  C  C107  1  0.01717333  0.44977285  0.12075466  1
  C  C108  1  0.41049517  0.49804029  0.37205119  1
  C  C109  1  0.30480650  0.25174829  0.12420422  1
  H  H110  1  0.25539573  0.39377812  0.05616629  1
  N  N111  1  0.16310332  0.48656311  0.53965701  1
  C  C112  1  0.47055502  0.35701998  0.74740728  1
  O  O113  1  0.19053783  0.46349232  0.89894184  1
  Zn  Zn114  1  0.36624329  0.28851901  0.67074759  1
  C  C115  1  0.05983047  0.27623165  0.80712106  1
  H  H116  1  0.09635112  0.28728297  0.69806260  1
  N  N117  1  0.28524073  0.39255486  0.62045961  1
  C  C118  1  0.05457879  0.37560789  0.74533091  1
  Zn  Zn119  1  0.20659594  0.44921182  0.63387260  1
  O  O120  1  0.28650819  0.44968953  0.94909241  1
  C  C121  1  0.22978836  0.47373383  0.94324725  1
  C  C122  1  0.07784392  0.41358011  0.68477829  1
  N  N123  1  0.07204888  0.29734445  0.93114836  1
  N  N124  1  0.30066566  0.36266647  0.67498451  1
  O  O125  1  0.26531505  0.25832305  0.56595613  1
  N  N126  1  0.05300273  0.47122747  0.68241473  1
  H  H127  1  0.43322095  0.40309759  0.58426711  1
  N  N128  1  0.12328028  0.40144672  0.63537481  1
  C  C129  1  0.00903201  0.40206262  0.79700979  1
  C  C130  1  0.07158365  0.30981668  0.74397187  1
  C  C131  1  0.45213656  0.39757982  0.64098316  1
  N  N132  1  0.43627445  0.35216855  0.68492266  1
  H  H133  1  0.46478425  0.32117099  0.79727398  1
  N  N134  1  0.49608454  0.43723326  0.67837253  1
  C  C135  1  0.08410656  0.33486512  0.99114823  1
  C  C136  1  0.03652766  0.31159432  0.87031868  1
  Zn  Zn137  1  0.11588473  0.41030600  0.52616776  1
  H  H138  1  0.06528485  0.38296385  0.99551853  1
  O  O139  1  0.40074602  0.50692742  0.43498598  1
  C  C140  1  0.48493827  0.73997068  0.37156238  1
  N  N141  1  0.13740009  0.57087224  0.06453084  1
  H  H142  1  0.01562215  0.72413897  0.32853712  1
  Zn  Zn143  1  0.04178243  0.59972132  0.07109961  1
  N  N144  1  0.01013962  0.58414887  0.30464468  1
  C  C145  1  0.27333117  0.64092677  0.26142464  1
  H  H146  1  0.41897107  0.60055546  0.42966442  1
  C  C147  1  0.23020734  0.70470043  0.44789239  1
  C  C148  1  0.26991055  0.69861648  0.21614452  1
  C  C149  1  0.45642351  0.68234499  0.36515736  1
  C  C150  1  0.44712562  0.53951534  0.24737498  1
  O  O151  1  0.44014046  0.54355617  0.32926543  1
  C  C152  1  0.26169769  0.64623887  0.44337943  1
  C  C153  1  0.10299652  0.68470837  0.31397683  1
  H  H154  1  0.08994124  0.65375741  0.35707593  1
  C  C155  1  0.37946390  0.62984412  0.21070580  1
  H  H156  1  0.34399475  0.56423343  0.29085418  1
  N  N157  1  0.43794668  0.59738513  0.20698714  1
  H  H158  1  0.20111863  0.59569595  0.33511483  1
  C  C159  1  0.21223195  0.63144743  0.29857869  1
  O  O160  1  0.18065570  0.73063856  0.02223927  1
  C  C161  1  0.23292429  0.59074405  0.46777323  1
  C  C162  1  0.33116580  0.60459014  0.25644211  1
  H  H163  1  0.40180099  0.51742756  0.23138259  1
  C  C164  1  0.16411159  0.70705465  0.47264649  1
  H  H165  1  0.13345712  0.72939794  0.03122960  1
  H  H166  1  0.48647883  0.64732789  0.11574093  1
  C  C167  1  0.02196540  0.60738057  0.24191201  1
  H  H168  1  0.44405869  0.66118153  0.30876210  1
  C  C169  1  0.37759480  0.68931901  0.17171237  1
  C  C170  1  0.16866300  0.67972111  0.28482349  1
  C  C171  1  0.32193060  0.72404067  0.17604198  1
  C  C172  1  0.44028252  0.64963208  0.42851646  1
  H  H173  1  0.30917313  0.64895796  0.41566349  1
  H  H174  1  0.41934338  0.70603453  0.13768840  1
  C  C175  1  0.16335046  0.51010405  0.05810345  1
  C  C176  1  0.20437091  0.72123958  0.23069727  1
  C  C177  1  0.05847032  0.73124806  0.29718472  1
  C  C178  1  0.17906887  0.59386535  0.01746019  1
  H  H179  1  0.47213552  0.54345075  0.03649859  1
  C  C180  1  0.48436034  0.60776037  0.15569713  1
  H  H181  1  0.35859486  0.74891072  0.44674094  1
  C  C182  1  0.13254458  0.65283328  0.49788208  1
  N  N183  1  0.37636541  0.52233198  0.01252860  1
  C  C184  1  0.16875618  0.59483410  0.49576273  1
  C  C185  1  0.45185892  0.67855917  0.49531170  1
  C  C186  1  0.43645640  0.50738375  0.03110853  1
  H  H187  1  0.26048414  0.54719706  0.46568428  1
  C  C188  1  0.21133012  0.52540649  0.00057196  1
  N  N189  1  0.07438651  0.61048313  0.77101821  1
  C  C190  1  0.45937729  0.71956006  0.84327840  1
  C  C191  1  0.38155794  0.57031275  0.81969520  1
  C  C192  1  0.48952698  0.73337260  0.50431081  1
  Zn  Zn193  1  0.24231661  0.61118715  0.85026462  1
  Zn  Zn194  1  0.00590788  0.50485947  0.59739883  1
  H  H195  1  0.37871443  0.56553034  0.54097814  1
  N  N196  1  0.05641337  0.71833460  0.96289463  1
  H  H197  1  0.31136288  0.58941069  0.67410127  1
  Zn  Zn198  1  0.32637755  0.72080984  0.74840440  1
  C  C199  1  0.19612920  0.72917569  0.80043735  1
  C  C200  1  0.14079205  0.54390278  0.53945686  1
  C  C201  1  0.39556755  0.70390865  0.60907747  1
  C  C202  1  0.37902127  0.60703108  0.57543175  1
  O  O203  1  0.32663428  0.58484771  0.79074012  1
  C  C204  1  0.48625049  0.62608938  0.86652748  1
  N  N205  1  0.35610718  0.68007053  0.65888449  1
  N  N206  1  0.41203838  0.65836246  0.55725586  1
  N  N207  1  0.23495990  0.70611421  0.75131816  1
  Zn  Zn208  1  0.10865813  0.54216832  0.69694505  1
  Zn  Zn209  1  0.09090953  0.66554881  0.86325143  1
  N  N210  1  0.09539725  0.55358201  0.58799078  1
  C  C211  1  0.34344697  0.62023158  0.63990755  1
  C  C212  1  0.42493405  0.62426709  0.83624829  1
  N  N213  1  0.17887973  0.68191177  0.84410011  1
  N  N214  1  0.40608612  0.68632904  0.81755702  1
  N  N215  1  0.02157667  0.64082238  0.78069292  1
  N  N216  1  0.20262133  0.55550829  0.75780374  1
  N  N217  1  0.22921645  0.58177952  0.97152962  1
  O  O218  1  0.39666579  0.51616362  0.82876264  1
  N  N219  1  0.05999794  0.66070857  0.97876689  1
  N  N220  1  0.23090366  0.51709596  0.71718638  1
  H  H221  1  0.08375524  0.65931271  0.52172440  1
  O  O222  1  0.11541025  0.86806843  0.35275188  1
  Zn  Zn223  1  0.41211776  0.88083242  0.37448091  1
  O  O224  1  0.03511976  0.90910139  0.42064542  1
  N  N225  1  0.43947325  0.89474355  0.49537062  1
  C  C226  1  0.01817066  0.81637055  0.03547663  1
  H  H227  1  0.31330839  0.77249476  0.14550480  1
  H  H228  1  0.21152501  0.94147064  0.44339342  1
  C  C229  1  0.08381223  0.91300783  0.36266380  1
  C  C230  1  0.11546863  0.80923477  0.20477089  1
  N  N231  1  0.06892234  0.91820903  0.06412449  1
  N  N232  1  0.38905600  0.97766609  0.36809065  1
  N  N233  1  0.33020021  0.82830135  0.38029565  1
  O  O234  1  0.37739416  0.85632615  0.05837939  1
  H  H235  1  0.27653977  0.92149730  0.14676040  1
  C  C236  1  0.32320257  0.77528273  0.41515602  1
  C  C237  1  0.07866172  0.85815522  0.04710315  1
  C  C238  1  0.12957886  0.94111847  0.07834026  1
  H  H239  1  0.17774900  0.79498101  0.35200793  1
  C  C240  1  0.08724222  0.97473411  0.32404655  1
  H  H241  1  0.11372277  0.85298892  0.17079234  1
  O  O242  1  0.20647626  0.92182624  0.23513496  1
  N  N243  1  0.31341399  0.95148610  0.15088324  1
  C  C244  1  0.06141189  0.78548426  0.24920164  1
  C  C245  1  0.27501249  0.84918250  0.35154269  1
  C  C246  1  0.38482698  0.91163957  0.04819033  1
  C  C247  1  0.22859617  0.79998195  0.36742854  1
  O  O248  1  0.24865109  0.80758669  0.04579446  1
  H  H249  1  0.27134594  0.89334026  0.32088888  1
  H  H250  1  0.02933710  0.95258027  0.42806138  1
  C  C251  1  0.36660591  0.95751910  0.11354225  1
  C  C252  1  0.16762481  0.77124718  0.20776234  1
  C  C253  1  0.14665440  0.84663877  0.05059642  1
  N  N254  1  0.48401918  0.84753843  0.32254658  1
  N  N255  1  0.17644125  0.89750546  0.07428807  1
  C  C256  1  0.19294621  0.79283934  0.04108726  1
  C  C257  1  0.19702686  0.97453937  0.24598419  1
  C  C258  1  0.49748939  0.78949079  0.30862033  1
  C  C259  1  0.00302765  0.86354324  0.19603583  1
  H  H260  1  0.13563081  0.99312392  0.09283089  1
  N  N261  1  0.00928203  0.82649973  0.25274964  1
  H  H262  1  0.03591919  0.86341536  0.15022005  1
  O  O263  1  0.02094448  0.75651497  0.04022416  1
  N  N264  1  0.25712756  0.75959698  0.41247988  1
  C  C265  1  0.20649167  0.99170141  0.45792874  1
  H  H266  1  0.14075122  0.75398412  0.47750745  1
  N  N267  1  0.41822125  0.89406811  0.55698695  1
  N  N268  1  0.49290578  0.91251741  0.97224053  1
  Zn  Zn269  1  0.47328019  0.96982817  0.81741037  1
  C  C270  1  0.14010033  0.81635357  0.87175665  1
  C  C271  1  0.12016296  0.91734494  0.53978534  1
  N  N272  1  0.10893912  0.86822129  0.56959235  1
  H  H273  1  0.14845043  0.78258457  0.91886593  1
  O  O274  1  0.26823215  0.98309288  0.66444269  1
  C  C275  1  0.32188412  0.86343120  0.74909438  1
  C  C276  1  0.10448233  0.91083443  0.81420545  1
  H  H277  1  0.17410394  0.81667943  0.68589723  1
  C  C278  1  0.15955612  0.83401317  0.74008721  1
  N  N279  1  0.06955012  0.96703783  0.82414909  1
  C  C280  1  0.01922192  0.97388539  0.86856692  1
  C  C281  1  0.12935623  0.89283406  0.74475475  1
  C  C282  1  0.16773694  0.79588843  0.80557498  1
  C  C283  1  0.11087350  0.87473315  0.88008951  1
  C  C284  1  0.35063701  0.91815359  0.72625751  1
  N  N285  1  0.42041074  0.91281499  0.73331289  1
  C  C286  1  0.39675222  0.85422707  0.75665834  1
  Zn  Zn287  1  0.48439528  0.91605162  0.63760927  1
  N  N288  1  0.34688352  0.81408731  0.77754994  1
  H  H289  1  0.13317987  0.92362409  0.69775335  1
  C  C290  1  0.32672871  0.98293748  0.67654412  1
  C  C291  1  0.17290592  0.85645061  0.55465746  1
  O  O292  1  0.21951088  0.83291176  0.57638378  1
  H  H293  1  0.09605086  0.89588066  0.93128775  1
  H  H294  1  0.01395351  0.95702123  0.57287526  1
  N  N295  1  0.03734914  0.99156661  0.54749050  1
  H  H296  1  0.46702623  0.76942939  0.83570967  1
  C  C297  1  0.09713025  0.97762920  0.52679737  1
  H  H298  1  0.00051230  0.94287132  0.91055981  1
  H  H299  1  0.41538460  0.75070262  0.61446043  1
  O  O300  1  0.40831955  0.93513532  0.98863750  1
  N  N301  1  0.82427733  0.13121491  0.41374797  1
  O  O302  1  0.53629726  0.05632622  0.49455352  1
  O  O303  1  0.95367268  0.08660175  0.06800583  1
  C  C304  1  0.92029692  0.17936884  0.23260685  1
  N  N305  1  0.69898310  0.03590922  0.05671221  1
  Zn  Zn306  1  0.90688667  0.15988152  0.47868136  1
  C  C307  1  0.65968618  0.17474152  0.21851979  1
  H  H308  1  0.72606642  0.04195582  0.16860942  1
  O  O309  1  0.86828904  0.15939347  0.21529008  1
  H  H310  1  0.63901141  0.14675834  0.17181100  1
  O  O311  1  0.93853715  0.19654776  0.29167383  1
  N  N312  1  0.63618869  0.16715966  0.28655007  1
  H  H313  1  0.54658627  0.24237707  0.20024935  1
  C  C314  1  0.69851268  0.01606548  0.12590256  1
  C  C315  1  0.97381422  0.18360605  0.16022347  1
  C  C316  1  0.65767193  0.21181688  0.41425419  1
  C  C317  1  0.67252416  0.20603922  0.32790692  1
  N  N318  1  0.70751091  0.21910382  0.21380338  1
  Zn  Zn319  1  0.56725602  0.10731472  0.31838088  1
  O  O320  1  0.62541490  0.17197780  0.44256918  1
  H  H321  1  0.79497428  0.11736769  0.11682875  1
  C  C322  1  0.76428891  0.13669632  0.07265320  1
  H  H323  1  0.79126345  0.23358131  0.07549665  1
  N  N324  1  0.98607847  0.24464523  0.15037568  1
  C  C325  1  0.76842084  0.19695488  0.04184699  1
  C  C326  1  0.72055029  0.09475480  0.03333996  1
  N  N327  1  0.97163483  0.23036019  0.44781948  1
  N  N328  1  0.77933600  0.10371102  0.44122195  1
  N  N329  1  0.56532699  0.00214365  0.30707589  1
  C  C330  1  0.71624033  0.23962309  0.28121669  1
  O  O331  1  0.50797446  0.03348889  0.09844871  1
  N  N332  1  0.52333038  0.02330531  0.26386137  1
  C  C333  1  0.93353091  0.04343073  0.00109710  1
  N  N334  1  0.98918488  0.05254632  0.52999689  1
  C  C335  1  0.73294842  0.23295130  0.64219634  1
  C  C336  1  0.77812776  0.17758460  0.75481414  1
  C  C337  1  0.91636532  0.16786158  0.93051594  1
  C  C338  1  0.99341636  0.03313705  0.84901231  1
  H  H339  1  0.96560935  0.03150470  0.71587647  1
  H  H340  1  0.79308082  0.01411609  0.91763290  1
  O  O341  1  0.55854246  0.15180691  0.71119702  1
  C  C342  1  0.53761487  0.08494962  0.55158908  1
  C  C343  1  0.68639430  0.17040881  0.94433972  1
  H  H344  1  0.64831012  0.07912497  0.94461378  1
  H  H345  1  0.61416239  0.16522885  0.85414089  1
  N  N346  1  0.89315004  0.09340276  0.55155917  1
  C  C347  1  0.91053377  0.22260884  0.89319046  1
  C  C348  1  0.65161866  0.19137424  0.87943431  1
  H  H349  1  0.56004256  0.12642174  0.66170771  1
  C  C350  1  0.67957218  0.11156480  0.97230696  1
  C  C351  1  0.82722225  0.11886140  0.85577107  1
  C  C352  1  0.86668274  0.22949621  0.83314951  1
  H  H353  1  0.94951895  0.05617268  0.86896912  1
  C  C354  1  0.82153765  0.17495509  0.81583213  1
  C  C355  1  0.87239280  0.11628259  0.91280030  1
  H  H356  1  0.74973610  0.13474584  0.74860840  1
  N  N357  1  0.87612541  0.06168140  0.95420143  1
  H  H358  1  0.79913454  0.07694596  0.84314065  1
  C  C359  1  0.93612587  0.05074313  0.56626188  1
  H  H360  1  0.69957812  0.19534125  0.62451967  1
  C  C361  1  0.83486017  0.01468247  0.95086628  1
  O  O362  1  0.57475153  0.07275011  0.60158126  1
  C  C363  1  0.73780298  0.21647052  0.97403546  1
  C  C364  1  0.77405504  0.22877486  0.70627451  1
  N  N365  1  0.72478722  0.06928346  0.63800108  1
  H  H366  1  0.58827257  0.23231774  0.77088527  1
  Zn  Zn367  1  0.79665160  0.08417085  0.55409753  1
  N  N368  1  0.73505455  0.01572670  0.61489270  1
  H  H369  1  0.94658105  0.16500371  0.97991154  1
  H  H370  1  0.97803641  0.04117483  0.96481675  1
  H  H371  1  0.62070170  0.00915007  0.98863763  1
  C  C372  1  0.66663826  0.24940492  0.84891630  1
  O  O373  1  0.65647434  0.01018184  0.86531212  1
  C  C374  1  0.50167826  0.18560874  0.69642276  1
  O  O375  1  0.76392417  0.31430690  0.37025941  1
  Zn  Zn376  1  0.94382883  0.36548481  0.42835553  1
  O  O377  1  0.88423527  0.48284424  0.30590544  1
  C  C378  1  0.63341360  0.47655201  0.32179474  1
  H  H379  1  0.73045380  0.28388765  0.39142705  1
  C  C380  1  0.67778543  0.43194188  0.22339184  1
  Zn  Zn381  1  0.95200254  0.32883074  0.19254764  1
  N  N382  1  0.98814094  0.31533956  0.30103359  1
  N  N383  1  0.94393980  0.35572521  0.31069478  1
  C  C384  1  0.89020984  0.35128060  0.04565835  1
  N  N385  1  0.97715799  0.40095940  0.11732866  1
  H  H386  1  0.53976004  0.40974314  0.38844130  1
  C  C387  1  0.96273439  0.46641783  0.02229955  1
  H  H388  1  0.61004692  0.33914525  0.17577411  1
  H  H389  1  0.60316405  0.47956976  0.37254237  1
  C  C390  1  0.58053104  0.33513197  0.22570628  1
  C  C391  1  0.54182753  0.36992679  0.34804940  1
  C  C392  1  0.94263213  0.41097831  0.05901292  1
  N  N393  1  0.63002214  0.42599895  0.27569502  1
  C  C394  1  0.76046765  0.29415618  0.29718987  1
  O  O395  1  0.78714043  0.32279812  0.25102604  1
  C  C396  1  0.58139174  0.37716441  0.28399690  1
  O  O397  1  0.88044225  0.31313601  0.09535085  1
  C  C398  1  0.58077032  0.34881474  0.06298873  1
  H  H399  1  0.76768739  0.34635091  0.47275824  1
  C  C400  1  0.50848826  0.26741804  0.30303044  1
  H  H401  1  0.68235096  0.39949942  0.17823061  1
  N  N402  1  0.92619345  0.26749463  0.46603348  1
  H  H403  1  0.53044973  0.47481902  0.20287034  1
  C  C404  1  0.50584307  0.31627800  0.35745759  1
  C  C405  1  0.71015713  0.48625722  0.24155023  1
  C  C406  1  0.77772864  0.45216881  0.47721383  1
  C  C407  1  0.54629020  0.27926132  0.23975716  1
  H  H408  1  0.77441560  0.46825316  0.42081784  1
  O  O409  1  0.60449044  0.39741293  0.05981463  1
  O  O410  1  0.55540579  0.29989755  0.06914696  1
  O  O411  1  0.68277931  0.25566724  0.44780546  1
  C  C412  1  0.70901137  0.47849915  0.77973850  1
  H  H413  1  0.62125827  0.32797490  0.68951628  1
  C  C414  1  0.73717975  0.28383893  0.59447803  1
  C  C415  1  0.50930824  0.41123644  0.74201659  1
  C  C416  1  0.85840476  0.28253887  0.79089671  1
  O  O417  1  0.89528609  0.46563022  0.91833179  1
  N  N418  1  0.79065382  0.48903639  0.53707626  1
  H  H419  1  0.78868742  0.47239072  0.65444013  1
  C  C420  1  0.81552845  0.28322711  0.72922430  1
  C  C421  1  0.64621914  0.31691620  0.74239524  1
  H  H422  1  0.88826291  0.32364045  0.80215157  1
  C  C423  1  0.71574475  0.29554411  0.87652609  1
  C  C424  1  0.71607360  0.35692944  0.84612256  1
  H  H425  1  0.63477703  0.40940406  0.64288441  1
  H  H426  1  0.97977144  0.44278990  0.78966701  1
  C  C427  1  0.77350391  0.33628661  0.62142697  1
  O  O428  1  0.86369981  0.34915934  0.98762054  1
  H  H429  1  0.54660811  0.43284205  0.77781259  1
  H  H430  1  0.70721388  0.28241821  0.54216593  1
  C  C431  1  0.68351595  0.36592887  0.77965617  1
  N  N432  1  0.68348657  0.42593745  0.74621805  1
  H  H433  1  0.74647966  0.39512899  0.86816257  1
  N  N434  1  0.77374189  0.39137668  0.57792197  1
  C  C435  1  0.65624388  0.44477792  0.68142494  1
  H  H436  1  0.83932077  0.37925548  0.68835078  1
  C  C437  1  0.81343908  0.33554870  0.68378685  1
  C  C438  1  0.78645559  0.45429039  0.59626123  1
  H  H439  1  0.97259942  0.38932136  0.91123206  1
  H  H440  1  0.79006599  0.30062033  0.96452497  1
  H  H441  1  0.73045902  0.47966916  0.83268029  1
  C  C442  1  0.51976177  0.49387137  0.64329739  1
  C  C443  1  0.93690761  0.49151073  0.95588267  1
  C  C444  1  0.75108869  0.27355839  0.93880156  1
  C  C445  1  0.63045319  0.26406141  0.78389965  1
  N  N446  1  0.97107145  0.44011772  0.51973078  1
  H  H447  1  0.51215871  0.45530660  0.53275385  1
  C  C448  1  0.53031460  0.49356391  0.56439857  1
  H  H449  1  0.93711759  0.26534250  0.90983044  1
  C  C450  1  0.99882348  0.36921174  0.86226193  1
  C  C451  1  0.77158998  0.39099350  0.50338989  1
  H  H452  1  0.74498540  0.57529650  0.36320484  1
  O  O453  1  0.87549263  0.61669075  0.10316844  1
  N  N454  1  0.80349680  0.64787911  0.31770797  1
  C  C455  1  0.86005291  0.66591311  0.42071066  1
  C  C456  1  0.85043587  0.68391326  0.34616265  1
  H  H457  1  0.63528270  0.66205766  0.25560443  1
  C  C458  1  0.58882585  0.60042487  0.42430134  1
  N  N459  1  0.81821705  0.62263164  0.43491847  1
  C  C460  1  0.55698966  0.54530762  0.45443148  1
  C  C461  1  0.88457015  0.73405418  0.30405156  1
  C  C462  1  0.62333185  0.66137194  0.31345831  1
  C  C463  1  0.78248296  0.61200359  0.37359915  1
  C  C464  1  0.58915895  0.61222953  0.34595594  1
  C  C465  1  0.65366163  0.70398616  0.36347044  1
  N  N466  1  0.52286303  0.55766893  0.14907473  1
  C  C467  1  0.87303015  0.58409038  0.15849853  1
  C  C468  1  0.64539801  0.70284551  0.43909517  1
  H  H469  1  0.56380524  0.57877998  0.30850110  1
  C  C470  1  0.50550202  0.52059435  0.20128528  1
  C  C471  1  0.94171272  0.58212513  0.20767815  1
  H  H472  1  0.52839348  0.51199797  0.42146212  1
  C  C473  1  0.91537748  0.52161145  0.33339552  1
  H  H474  1  0.75644768  0.50729502  0.21946716  1
  H  H475  1  0.95232499  0.55958956  0.41285366  1
  O  O476  1  0.82450769  0.55483590  0.17619071  1
  O  O477  1  0.96513963  0.65766519  0.47886861  1
  N  N478  1  0.99428761  0.61181999  0.17626946  1
  C  C479  1  0.61145966  0.65283130  0.47276261  1
  H  H480  1  0.66997982  0.73822930  0.47340213  1
  C  C481  1  0.95149404  0.56789990  0.28303529  1
  O  O482  1  0.92562225  0.52084855  0.40767771  1
  H  H483  1  0.71939878  0.73035299  0.23111635  1
  O  O484  1  0.88502358  0.73824706  0.24007571  1
  N  N485  1  0.67924390  0.51334826  0.29844430  1
  C  C486  1  0.91324095  0.68145017  0.48818937  1
  H  H487  1  0.56962091  0.64206367  0.69344732  1
  N  N488  1  0.87333929  0.59082282  0.81617078  1
  C  C489  1  0.60101265  0.65484370  0.55125055  1
  Zn  Zn490  1  0.59943221  0.71222234  0.88561300  1
  H  H491  1  0.61411137  0.69582200  0.58758625  1
  H  H492  1  0.91191022  0.72847073  0.86546975  1
  O  O493  1  0.57252964  0.58235854  0.95122582  1
  O  O494  1  0.89831128  0.71072615  0.54326036  1
  Zn  Zn495  1  0.73838757  0.61328774  0.75878967  1
  N  N496  1  0.81540535  0.58654336  0.82745348  1
  N  N497  1  0.68513086  0.67633217  0.84837249  1
  O  O498  1  0.79032701  0.74907706  0.87730959  1
  N  N499  1  0.75904064  0.61983021  0.64912284  1
  Zn  Zn500  1  0.81070327  0.57751685  0.53440352  1
  C  C501  1  0.53982448  0.57296128  0.89871551  1
  N  N502  1  0.93843341  0.57220932  0.64463142  1
  C  C503  1  0.55898884  0.59943117  0.66085223  1
  C  C504  1  0.55876842  0.54719463  0.53178472  1
  N  N505  1  0.65235858  0.65792751  0.79439233  1
  N  N506  1  0.75814021  0.65879502  0.59750793  1
  C  C507  1  0.57684193  0.60033743  0.58454460  1
  N  N508  1  0.90091563  0.56056130  0.59190794  1
  Zn  Zn509  1  0.92645071  0.63090415  0.73200571  1
  O  O510  1  0.71747950  0.72860673  0.63116519  1
  H  H511  1  0.65073288  0.54650025  0.64151562  1
  N  N512  1  0.70241208  0.52898903  0.73723068  1
  C  C513  1  0.53494454  0.54446515  0.69144712  1
  H  H514  1  0.91864929  0.56640675  0.90698372  1
  N  N515  1  0.91517821  0.72272566  0.74644225  1
  H  H516  1  0.53388064  0.53690622  0.74979197  1
  O  O517  1  0.95800101  0.55369419  0.93216177  1
  N  N518  1  0.50843007  0.68486466  0.86972448  1
  O  O519  1  0.54578482  0.52467537  0.86212351  1
  O  O520  1  0.56985567  0.73108147  0.70143277  1
  C  C521  1  0.66669853  0.50929372  0.67835364  1
  H  H522  1  0.90732600  0.74636618  0.63380783  1
  N  N523  1  0.58879181  0.74481884  0.99369909  1
  C  C524  1  0.50383879  0.76520966  0.43987325  1
  H  H525  1  0.64237249  0.93614090  0.18007076  1
  C  C526  1  0.71279817  0.77068365  0.27222047  1
  C  C527  1  0.66664100  0.98882152  0.01204172  1
  C  C528  1  0.95415813  0.83410589  0.30480025  1
  N  N529  1  0.53923604  0.80669120  0.17032226  1
  N  N530  1  0.91768057  0.88064164  0.27174467  1
  H  H531  1  0.91439170  0.92435158  0.16887972  1
  Zn  Zn532  1  0.56857001  0.87394761  0.05458048  1
  N  N533  1  0.52052449  0.76952577  0.25600026  1
  N  N534  1  0.54382983  0.86542274  0.17332320  1
  H  H535  1  0.68261873  0.82469664  0.43790520  1
  C  C536  1  0.94230384  0.89524593  0.20753825  1
  C  C537  1  0.65755571  0.96350475  0.13180689  1
  N  N538  1  0.71486032  0.86045502  0.33060734  1
  N  N539  1  0.63666582  0.94447365  0.06691115  1
  N  N540  1  0.92039733  0.98030728  0.01936556  1
  C  C541  1  0.73069911  0.83380993  0.26662793  1
  Zn  Zn542  1  0.52284852  0.91770908  0.26382767  1
  C  C543  1  0.69091868  0.81609659  0.37583615  1
  H  H544  1  0.53088414  0.81169813  0.44520600  1
  O  O545  1  0.91973864  0.77658798  0.34293516  1
  H  H546  1  0.74911120  0.85903666  0.21954683  1
  H  H547  1  0.97700938  0.85761859  0.35629617  1
  N  N548  1  0.68404312  0.76203313  0.33672419  1
  O  O549  1  0.96841637  0.83970802  0.01798578  1
  H  H550  1  0.84331956  0.91939662  0.00471809  1
  H  H551  1  0.85239808  0.84845971  0.59057745  1
  C  C552  1  0.59538725  0.82180224  0.61778327  1
  H  H553  1  0.59076238  0.94040662  0.51469914  1
  H  H554  1  0.87788770  0.95042991  0.51928686  1
  N  N555  1  0.91125929  0.82328897  0.72179215  1
  C  C556  1  0.90878176  0.88340104  0.68606806  1
  C  C557  1  0.88509274  0.88776395  0.61245775  1
  N  N558  1  0.58257426  0.79927260  0.97368563  1
  N  N559  1  0.56363626  0.87070275  0.59314616  1
  N  N560  1  0.71469602  0.93105104  0.75588788  1
  C  C561  1  0.76917034  0.81247402  0.89454881  1
  O  O562  1  0.75618454  0.77818604  0.53939858  1
  C  C563  1  0.65380340  0.81444565  0.58058658  1
  C  C564  1  0.93980035  0.93081933  0.72782070  1
  H  H565  1  0.50664881  0.75087161  0.55783591  1
  C  C566  1  0.56164514  0.78836082  0.69385800  1
  C  C567  1  0.91264889  0.75178132  0.81155116  1
  C  C568  1  0.71587615  0.77073770  0.58424359  1
  C  C569  1  0.74569170  0.85414054  0.83187097  1
  O  O570  1  0.70558620  0.95954452  0.95433554  1
  C  C571  1  0.91112660  0.81630531  0.79570776  1
  H  H572  1  0.91033932  0.85515885  0.83286651  1
  C  C573  1  0.71926271  0.91976639  0.82806860  1
  N  N574  1  0.55993280  0.96919788  0.68781716  1
  C  C575  1  0.60153384  0.89365859  0.53902895  1
  C  C576  1  0.89163655  0.94491907  0.57696069  1
  O  O577  1  0.53883379  0.82019671  0.74235586  1
  N  N578  1  0.55811636  0.98515061  0.75554717  1
  H  H579  1  0.79726578  0.75577913  0.82574029  1
  H  H580  1  0.95723717  0.92694102  0.78441403  1
  O  O581  1  0.76636279  0.82793787  0.95537539  1
  N  N582  1  0.75187189  0.82479170  0.76795228  1
  C  C583  1  0.73727699  0.87525919  0.73676767  1
  C  C584  1  0.90846497  0.76230352  0.69299765  1
  C  C585  1  0.68649559  0.96716266  0.88217816  1
  C  C586  1  0.94092553  0.98997101  0.69159468  1
  N  N587  1  0.65710446  0.85935621  0.53074951  1
  Zn  Zn588  1  0.65929344  0.98929093  0.69373531  1
  N  N589  1  0.51230465  0.92581712  0.91034835  1
  C  C590  1  0.86149232  0.96746167  0.99630632  1
  C  C591  1  0.92339896  0.99361561  0.61612981  1
