# generated using pymatgen
data_Zn3H36C66(NO6)2
_symmetry_space_group_name_H-M   'P 1'
_cell_length_a   30.43694225
_cell_length_b   12.35202575
_cell_length_c   16.11351674
_cell_angle_alpha   90.00000000
_cell_angle_beta   90.00000000
_cell_angle_gamma   90.00000000
_symmetry_Int_Tables_number   1
_chemical_formula_structural   Zn3H36C66(NO6)2
_chemical_formula_sum   'Zn12 H144 C264 N8 O48'
_cell_volume   6058.00382363
_cell_formula_units_Z   4
loop_
 _symmetry_equiv_pos_site_id
 _symmetry_equiv_pos_as_xyz
  1  'x, y, z'
loop_
 _atom_site_type_symbol
 _atom_site_label
 _atom_site_symmetry_multiplicity
 _atom_site_fract_x
 _atom_site_fract_y
 _atom_site_fract_z
 _atom_site_occupancy
  C  C0  1  0.19554220  0.16318684  0.35444591  1
  C  C1  1  0.11529440  0.04623793  0.03342054  1
  C  C2  1  0.03228874  0.44665599  0.24444812  1
  H  H3  1  0.20578243  0.16744134  0.22173879  1
  C  C4  1  0.08137601  0.23096381  0.05180970  1
  C  C5  1  0.21343868  0.20770084  0.28155615  1
  C  C6  1  0.10152396  0.13175142  0.08232825  1
  C  C7  1  0.16334268  0.07284397  0.34978223  1
  H  H8  1  0.18550787  0.18456814  0.48901928  1
  C  C9  1  0.07575028  0.28607473  0.20570127  1
  Zn  Zn10  1  0.11107471  0.14560407  0.21261976  1
  Zn  Zn11  1  0.08853780  0.12737892  0.46569952  1
  O  O12  1  0.14252817  0.04235899  0.41387164  1
  C  C13  1  0.06583338  0.30531887  0.12048556  1
  O  O14  1  0.15127285  0.03225600  0.28074166  1
  C  C15  1  0.04168079  0.39518305  0.09676060  1
  H  H16  1  0.06355600  0.33303401  0.33153024  1
  H  H17  1  0.10494160  0.48709656  0.25046948  1
  C  C18  1  0.05880496  0.35350788  0.26735732  1
  C  C19  1  0.20000610  0.21924561  0.43334007  1
  C  C20  1  0.22684048  0.30953193  0.43780921  1
  H  H21  1  0.03685175  0.41161020  0.02901921  1
  C  C22  1  0.02324933  0.46117002  0.16045787  1
  H  H23  1  0.01976192  0.49953411  0.29526927  1
  H  H24  1  0.00065741  0.11857580  0.34589790  1
  O  O25  1  0.01887164  0.03840518  0.19963010  1
  C  C26  1  0.24079888  0.30015545  0.28535945  1
  C  C27  1  0.24795565  0.35000739  0.36370870  1
  H  H28  1  0.01059644  0.07671145  0.06473997  1
  O  O29  1  0.11566940  0.09492855  0.62933483  1
  C  C30  1  0.20791098  0.24474127  0.71345520  1
  C  C31  1  0.03722740  0.08313670  0.55942874  1
  C  C32  1  0.03220702  0.18967059  0.51795130  1
  H  H33  1  0.18649276  0.29333230  0.75211341  1
  C  C34  1  0.18736068  0.16634652  0.66402239  1
  H  H35  1  0.07636464  0.15732419  0.84627953  1
  C  C36  1  0.05389311  0.30097787  0.61703007  1
  O  O37  1  0.04844869  0.27143025  0.54440310  1
  H  H38  1  0.07013947  0.37159885  0.64499247  1
  O  O39  1  0.12253748  0.22109164  0.72496202  1
  H  H40  1  0.05016483  0.29947986  0.93509911  1
  C  C41  1  0.13967100  0.16411755  0.67478035  1
  C  C42  1  0.08308093  0.14802813  0.91329719  1
  C  C43  1  0.21005636  0.09905858  0.60577070  1
  C  C44  1  0.03974272  0.20572560  0.67814438  1
  H  H45  1  0.05464860  0.22261626  0.74179004  1
  H  H46  1  0.17339230  0.08995979  0.85278666  1
  C  C47  1  0.06212917  0.09079263  0.64735096  1
  C  C48  1  0.15595679  0.01867310  0.83143723  1
  H  H49  1  0.19259056  0.03939407  0.56459944  1
  C  C50  1  0.10550080  0.05576481  0.94499497  1
  C  C51  1  0.01444492  0.32219544  0.54346475  1
  H  H52  1  0.07716951  0.01649520  0.77962222  1
  C  C53  1  0.06907531  0.23147513  0.96609183  1
  C  C54  1  0.05282346  0.01641745  0.72996677  1
  C  C55  1  0.00689210  0.00562701  0.75418773  1
  H  H56  1  0.23674028  0.34272436  0.50018657  1
  O  O57  1  0.03516438  0.46857343  0.91920694  1
  O  O58  1  0.14829620  0.49875858  0.62271350  1
  O  O59  1  0.12155465  0.47576875  0.74418238  1
  C  C60  1  0.05587562  0.86826786  0.08033740  1
  H  H61  1  0.07874066  0.55490142  0.12060679  1
  C  C62  1  0.09839794  0.61219234  0.15676634  1
  C  C63  1  0.09959813  0.72414095  0.14420034  1
  C  C64  1  0.14768807  0.74292967  0.26274339  1
  C  C65  1  0.12567080  0.79190638  0.19837818  1
  O  O66  1  0.16661514  0.64786352  0.42905286  1
  H  H67  1  0.16581868  0.79336448  0.30767589  1
  C  C68  1  0.11243262  0.57238384  0.23339071  1
  C  C69  1  0.05432629  0.69144669  0.00597094  1
  H  H70  1  0.02357744  0.64082475  0.46770822  1
  C  C71  1  0.07142954  0.76134934  0.07120729  1
  H  H72  1  0.06596507  0.60765107  0.00055385  1
  H  H73  1  0.13347272  0.87288247  0.18261386  1
  C  C74  1  0.13655459  0.63619847  0.28738611  1
  C  C75  1  0.02307480  0.91093860  0.02947771  1
  H  H76  1  0.07075651  0.91805974  0.12744724  1
  H  H77  1  0.22364650  0.55695737  0.31498724  1
  C  C78  1  0.14760667  0.59110650  0.37455910  1
  O  O79  1  0.03211465  0.89051897  0.39699620  1
  H  H80  1  0.13680718  0.98846425  0.06330737  1
  O  O81  1  0.04650182  0.82383063  0.45057303  1
  H  H82  1  0.01896136  0.67026808  0.20273971  1
  O  O83  1  0.13346060  0.50246786  0.39393725  1
  C  C84  1  0.07191813  0.54642312  0.64251919  1
  C  C85  1  0.16460733  0.81048891  0.65536747  1
  C  C86  1  0.02468978  0.61207597  0.53178907  1
  C  C87  1  0.02061446  0.73089579  0.95294078  1
  C  C88  1  0.14928035  0.86726607  0.73511592  1
  O  O89  1  0.19888078  0.84646511  0.62886861  1
  C  C90  1  0.06505398  0.58144600  0.55945279  1
  C  C91  1  0.03636796  0.54677124  0.69883119  1
  H  H92  1  0.09441747  0.57316151  0.51797863  1
  C  C93  1  0.11584882  0.82276818  0.78557246  1
  H  H94  1  0.07287574  0.83508675  0.89350453  1
  Zn  Zn95  1  0.18330540  0.61146218  0.55309852  1
  H  H96  1  0.10426991  0.74413551  0.76460376  1
  Zn  Zn97  1  0.04530184  0.92262096  0.62092781  1
  O  O98  1  0.14429808  0.73776579  0.61946283  1
  C  C99  1  0.09899977  0.87632787  0.85275919  1
  C  C100  1  0.16905657  0.96400890  0.75872185  1
  C  C101  1  0.00143190  0.83006690  0.97679455  1
  C  C102  1  0.11689776  0.50940768  0.67631286  1
  H  H103  1  0.00833464  0.68613084  0.89530650  1
  H  H104  1  0.04487451  0.51689266  0.76114245  1
  C  C105  1  0.11963515  0.97647449  0.87911137  1
  H  H106  1  0.19759055  0.99301353  0.72182154  1
  O  O107  1  0.24969491  0.65570864  0.59249187  1
  O  O108  1  0.34749082  0.29682983  0.25944023  1
  C  C109  1  0.44492836  0.32728071  0.42942005  1
  C  C110  1  0.40699331  0.48808915  0.48505742  1
  C  C111  1  0.40770703  0.38572485  0.07021840  1
  H  H112  1  0.33238932  0.37042613  0.41336683  1
  C  C113  1  0.41338314  0.41065585  0.41928469  1
  C  C114  1  0.40419390  0.08978142  0.46118412  1
  H  H115  1  0.28786202  0.16760388  0.34734217  1
  H  H116  1  0.34751283  0.22854789  0.23392819  1
  C  C117  1  0.35964031  0.09873122  0.44078508  1
  H  H118  1  0.48270836  0.06779393  0.19254537  1
  C  C119  1  0.37916385  0.32020513  0.11920040  1
  O  O120  1  0.47334178  0.02201750  0.33800146  1
  H  H121  1  0.25965093  0.33857759  0.23277068  1
  C  C122  1  0.37839830  0.35358616  0.20828323  1
  C  C123  1  0.31648196  0.44980830  0.40985942  1
  H  H124  1  0.44713109  0.25877194  0.39173880  1
  O  O125  1  0.28218998  0.04879052  0.06669053  1
  H  H126  1  0.26850067  0.11484608  0.20276258  1
  H  H127  1  0.39212879  0.40860683  0.36627528  1
  C  C128  1  0.35469130  0.23788227  0.07735156  1
  C  C129  1  0.30687662  0.10729885  0.31657695  1
  H  H130  1  0.33092096  0.18196908  0.11094104  1
  H  H131  1  0.29198284  0.15675015  0.48579895  1
  C  C132  1  0.34645479  0.06715870  0.35398282  1
  H  H133  1  0.42849222  0.06210597  0.41569845  1
  C  C134  1  0.29668615  0.07753133  0.23472968  1
  O  O135  1  0.40068421  0.41976224  0.23775225  1
  C  C136  1  0.32194917  0.00869079  0.18616317  1
  C  C137  1  0.32812839  0.14298541  0.49711065  1
  H  H138  1  0.42646932  0.44906125  0.10282850  1
  C  C139  1  0.27282308  0.45578009  0.37560770  1
  C  C140  1  0.47636303  0.35070339  0.49141441  1
  C  C141  1  0.39868676  0.20245592  0.68057450  1
  C  C142  1  0.35088509  0.23273675  0.80410681  1
  C  C143  1  0.33738202  0.47456796  0.66176299  1
  C  C144  1  0.41321413  0.36343920  0.98589641  1
  C  C145  1  0.38978526  0.26149862  0.84922346  1
  C  C146  1  0.46237267  0.01506152  0.72885144  1
  H  H147  1  0.45710061  0.44462039  0.72589019  1
  C  C148  1  0.27878781  0.18313752  0.65819802  1
  N  N149  1  0.32414695  0.19544838  0.65375926  1
  C  C150  1  0.43237614  0.26514395  0.81220767  1
  H  H151  1  0.26943984  0.31731543  0.74734283  1
  C  C152  1  0.38887057  0.28066326  0.94327719  1
  C  C153  1  0.35462954  0.21109619  0.71886194  1
  O  O154  1  0.25489811  0.48175766  0.58889301  1
  C  C155  1  0.49417102  0.48907905  0.84002440  1
  C  C156  1  0.39143894  0.16389038  0.59579299  1
  H  H157  1  0.31863880  0.22078376  0.83133784  1
  H  H158  1  0.45447244  0.04906956  0.79021258  1
  H  H159  1  0.46599496  0.24176939  0.70105932  1
  C  C160  1  0.43517103  0.23306347  0.72931892  1
  C  C161  1  0.37494594  0.47205629  0.71096871  1
  C  C162  1  0.47424762  0.43372328  0.55200794  1
  H  H163  1  0.27519406  0.05648488  0.56541270  1
  C  C164  1  0.34425922  0.16988956  0.57745975  1
  C  C165  1  0.42119783  0.12093497  0.53750438  1
  H  H166  1  0.43177425  0.42363010  0.95210666  1
  H  H167  1  0.39462738  0.39241003  0.71522017  1
  H  H168  1  0.32851494  0.39856790  0.62984731  1
  H  H169  1  0.46256784  0.28201079  0.85011291  1
  H  H170  1  0.45637164  0.12507804  0.55131824  1
  H  H171  1  0.33881678  0.15556371  0.96310610  1
  C  C172  1  0.45808671  0.48981474  0.78494371  1
  C  C173  1  0.25344695  0.25304330  0.70926322  1
  C  C174  1  0.25540471  0.10684812  0.60657114  1
  C  C175  1  0.35871680  0.22061205  0.99108723  1
  N  N176  1  0.37465042  0.57013036  0.47488384  1
  C  C177  1  0.26729415  0.65226536  0.38995176  1
  C  C178  1  0.30812222  0.65250020  0.43504448  1
  C  C179  1  0.25068148  0.55610953  0.35694276  1
  H  H180  1  0.39680189  0.94829413  0.33697311  1
  C  C181  1  0.48076755  0.92219123  0.31753652  1
  C  C182  1  0.32904991  0.84412243  0.49811456  1
  C  C183  1  0.33298356  0.54756100  0.44327066  1
  C  C184  1  0.33580913  0.73307275  0.47352919  1
  O  O185  1  0.47470773  0.85154536  0.36618375  1
  C  C186  1  0.37825314  0.67998838  0.49147094  1
  H  H187  1  0.29908841  0.89045226  0.48189346  1
  C  C188  1  0.49302999  0.90284061  0.22691018  1
  H  H189  1  0.37953607  0.91260045  0.18604368  1
  C  C190  1  0.36924649  0.98844773  0.30574619  1
  C  C191  1  0.35900969  0.96455979  0.22211332  1
  O  O192  1  0.32802405  0.91762257  0.05044506  1
  H  H193  1  0.25167395  0.73539789  0.38449694  1
  C  C194  1  0.49418760  0.98945908  0.16995831  1
  C  C195  1  0.30935030  0.98462180  0.09478805  1
  C  C196  1  0.36710977  0.67073936  0.73836080  1
  C  C197  1  0.42686261  0.56849640  0.80789245  1
  C  C198  1  0.49528218  0.57576949  0.90272214  1
  H  H199  1  0.43183093  0.56554979  0.60072166  1
  H  H200  1  0.38127288  0.74538711  0.75891570  1
  C  C201  1  0.44068462  0.90088538  0.60750071  1
  H  H202  1  0.30721878  0.74033030  0.69368248  1
  C  C203  1  0.26979279  0.56986329  0.61215959  1
  H  H204  1  0.47002611  0.72393996  0.96663906  1
  C  C205  1  0.31445738  0.57430971  0.65826063  1
  H  H206  1  0.39540587  0.70368192  0.87740225  1
  C  C207  1  0.42798142  0.65140896  0.86838876  1
  C  C208  1  0.48006261  0.93098619  0.56515157  1
  C  C209  1  0.43734039  0.50116715  0.55275586  1
  C  C210  1  0.40527394  0.84667080  0.55624848  1
  C  C211  1  0.38858770  0.57094269  0.74776382  1
  C  C212  1  0.32639914  0.67068541  0.69699568  1
  H  H213  1  0.44600600  0.70419953  0.53631630  1
  C  C214  1  0.46524117  0.66271349  0.91803649  1
  C  C215  1  0.43425773  0.94130580  0.69082332  1
  H  H216  1  0.35875759  0.98365736  0.55916026  1
  H  H217  1  0.40549319  0.91188368  0.72768090  1
  C  C218  1  0.36252496  0.89601026  0.54131947  1
  C  C219  1  0.41409374  0.74143330  0.52662540  1
  H  H220  1  0.48809920  0.89612009  0.50219286  1
  O  O221  1  0.54638015  0.17000783  0.24011209  1
  C  C222  1  0.61220940  0.09752856  0.19346350  1
  O  O223  1  0.72568253  0.33549682  0.08833511  1
  C  C224  1  0.64140890  0.34987279  0.45677191  1
  H  H225  1  0.50810746  0.02319716  0.03753710  1
  Zn  Zn226  1  0.53013931  0.11650723  0.35993150  1
  O  O227  1  0.51791389  0.18300312  0.47408999  1
  O  O228  1  0.62365649  0.38528673  0.39228260  1
  O  O229  1  0.63969148  0.24878548  0.47386040  1
  H  H230  1  0.60415202  0.04801628  0.03693182  1
  Zn  Zn231  1  0.64212068  0.40004581  0.26344986  1
  O  O232  1  0.69646707  0.32341328  0.21169053  1
  C  C233  1  0.72343074  0.36422544  0.15999295  1
  H  H234  1  0.66824774  0.20087991  0.15147415  1
  C  C235  1  0.65393461  0.11813855  0.15438958  1
  O  O236  1  0.59703506  0.28797523  0.21551381  1
  C  C237  1  0.58367166  0.19297830  0.21503103  1
  H  H238  1  0.62759493  0.24823386  0.06439834  1
  C  C239  1  0.66073909  0.00317679  0.42277244  1
  C  C240  1  0.61327748  0.00785045  0.43666919  1
  C  C241  1  0.67720843  0.02621598  0.12849714  1
  H  H242  1  0.71019223  0.03517873  0.09660853  1
  H  H243  1  0.71208507  0.49123492  0.29329916  1
  C  C244  1  0.62032025  0.21867688  0.00060875  1
  C  C245  1  0.60052515  0.26458995  0.85237327  1
  C  C246  1  0.61336048  0.10171800  0.98341331  1
  C  C247  1  0.69542917  0.37240808  0.57501100  1
  Zn  Zn248  1  0.59321100  0.17567015  0.56135527  1
  C  C249  1  0.53501502  0.10845648  0.72531259  1
  H  H250  1  0.71980270  0.13925008  0.91344488  1
  C  C251  1  0.56399703  0.18361658  0.86313925  1
  H  H252  1  0.74537734  0.39406568  0.67103789  1
  H  H253  1  0.59671314  0.42709974  0.70899423  1
  O  O254  1  0.65334027  0.43884308  0.85581138  1
  C  C255  1  0.63592957  0.26737767  0.78662109  1
  C  C256  1  0.62291239  0.28942211  0.92978129  1
  O  O257  1  0.54638199  0.30530903  0.55365626  1
  C  C258  1  0.50103665  0.04267963  0.68279992  1
  C  C259  1  0.69909107  0.20617587  0.88562212  1
  C  C260  1  0.65561707  0.39002899  0.78840344  1
  C  C261  1  0.51535312  0.27766481  0.50859614  1
  C  C262  1  0.65758918  0.37987511  0.91862137  1
  H  H263  1  0.62143509  0.24804434  0.72603850  1
  H  H264  1  0.54267728  0.20836885  0.91394589  1
  H  H265  1  0.66210681  0.42080309  0.72468676  1
  O  O266  1  0.57118276  0.12609353  0.69262350  1
  C  C267  1  0.66562121  0.17427626  0.82415198  1
  C  C268  1  0.63431634  0.07495075  0.84544851  1
  O  O269  1  0.62328918  0.05020257  0.91552919  1
  C  C270  1  0.69387401  0.41587307  0.85077373  1
  O  O271  1  0.52544262  0.13604155  0.80012814  1
  O  O272  1  0.59857196  0.01848040  0.50951197  1
  H  H273  1  0.69961214  0.28303853  0.57723923  1
  C  C274  1  0.70568464  0.31854665  0.91313467  1
  C  C275  1  0.59088481  0.08715173  0.88250560  1
  C  C276  1  0.72259461  0.43129475  0.62545263  1
  H  H277  1  0.73288960  0.33926107  0.96188789  1
  H  H278  1  0.67326961  0.00355220  0.55772509  1
  H  H279  1  0.57209477  0.48051720  0.55577958  1
  C  C280  1  0.66708283  0.41934734  0.51309122  1
  H  H281  1  0.50111993  0.44595809  0.59550629  1
  N  N282  1  0.52502210  0.49716293  0.89566889  1
  H  H283  1  0.53684971  0.03550735  0.56729494  1
  C  C284  1  0.50824834  0.00241276  0.60343044  1
  Zn  Zn285  1  0.69086959  0.00850752  0.82462325  1
  H  H286  1  0.63148145  0.80186556  0.38646704  1
  C  C287  1  0.50878709  0.96613484  0.08934989  1
  C  C288  1  0.60568642  0.73982822  0.40171995  1
  H  H289  1  0.59864031  0.82461139  0.16816228  1
  C  C290  1  0.65603787  0.92283368  0.13004757  1
  H  H291  1  0.64789846  0.57547843  0.45209031  1
  O  O292  1  0.62325419  0.55633021  0.22655239  1
  C  C293  1  0.74111747  0.51670506  0.25493926  1
  H  H294  1  0.55656294  0.50589490  0.32187976  1
  C  C295  1  0.52628549  0.77783299  0.13522886  1
  H  H296  1  0.72584663  0.58624727  0.06644448  1
  H  H297  1  0.57299987  0.68140078  0.02252084  1
  C  C298  1  0.70241486  0.74675409  0.10442114  1
  C  C299  1  0.67823628  0.83486981  0.07586546  1
  C  C300  1  0.58475840  0.74590912  0.47941155  1
  C  C301  1  0.52300563  0.85709414  0.07191465  1
  C  C302  1  0.61359646  0.90465034  0.16401176  1
  C  C303  1  0.59806762  0.65003364  0.35134109  1
  O  O304  1  0.65869197  0.69826332  0.26597151  1
  C  C305  1  0.56294312  0.57673082  0.36490573  1
  H  H306  1  0.70628131  0.72437733  0.17179785  1
  C  C307  1  0.53903375  0.58561265  0.44008978  1
  C  C308  1  0.62946037  0.63662622  0.27283962  1
  H  H309  1  0.53883196  0.69631124  0.12138094  1
  C  C310  1  0.72036401  0.99605095  0.32364721  1
  C  C311  1  0.70899099  0.66348788  0.04758179  1
  C  C312  1  0.50982968  0.79515210  0.21407012  1
  H  H313  1  0.51042193  0.73251780  0.26434138  1
  H  H314  1  0.50999992  0.53512889  0.45268300  1
  C  C315  1  0.59298714  0.99553972  0.20076324  1
  H  H316  1  0.65224101  0.99787361  0.28517938  1
  C  C317  1  0.74840602  0.99316936  0.39475017  1
  C  C318  1  0.73277606  0.99911446  0.47727834  1
  H  H319  1  0.55875572  0.99256549  0.23122242  1
  H  H320  1  0.73170356  0.97413416  0.26028283  1
  O  O321  1  0.58662480  0.99768509  0.37816420  1
  C  C322  1  0.68764661  0.99770196  0.49321508  1
  C  C323  1  0.67615051  0.99824627  0.33846657  1
  N  N324  1  0.73500150  0.92515976  0.73799103  1
  C  C325  1  0.52512552  0.89508490  0.91527086  1
  C  C326  1  0.69628834  0.68261643  0.96454279  1
  C  C327  1  0.53669912  0.86805404  0.83529070  1
  C  C328  1  0.57249855  0.70945934  0.89094403  1
  Zn  Zn329  1  0.60613677  0.56533036  0.86252233  1
  Zn  Zn330  1  0.71658159  0.69561129  0.77069052  1
  C  C331  1  0.54934600  0.72406165  0.65761629  1
  C  C332  1  0.53949479  0.83778271  0.98708648  1
  H  H333  1  0.53403761  0.80287378  0.63544176  1
  C  C334  1  0.72211178  0.54960491  0.61950370  1
  C  C335  1  0.58399194  0.59702080  0.74810545  1
  H  H336  1  0.52826483  0.92081501  0.78432919  1
  C  C337  1  0.56453603  0.73912702  0.97247587  1
  C  C338  1  0.55900907  0.76508679  0.81945922  1
  C  C339  1  0.69088037  0.59185119  0.56320070  1
  C  C340  1  0.56386008  0.70214730  0.74066369  1
  C  C341  1  0.74488417  0.82873196  0.70748688  1
  C  C342  1  0.55708350  0.64447427  0.59811925  1
  N  N343  1  0.68218825  0.69491051  0.88519053  1
  H  H344  1  0.50448387  0.96886627  0.92026632  1
  C  C345  1  0.67385267  0.78252871  0.93342545  1
  H  H346  1  0.68971031  0.67892951  0.55520199  1
  H  H347  1  0.64846869  0.93558929  0.97722757  1
  C  C348  1  0.57171464  0.53569464  0.60971800  1
  C  C349  1  0.66588438  0.86146439  0.99292307  1
  C  C350  1  0.66580603  0.53271314  0.50409976  1
  H  H351  1  0.59250343  0.81199318  0.52314325  1
  C  C352  1  0.58544876  0.51074683  0.69294295  1
  C  C353  1  0.55543955  0.66057722  0.50128956  1
  C  C354  1  0.96637789  0.27787523  0.36543726  1
  H  H355  1  0.95310468  0.27689775  0.11746547  1
  H  H356  1  0.92076357  0.43188767  0.20574456  1
  C  C357  1  0.95559370  0.28050722  0.18554180  1
  H  H358  1  0.78644207  0.45049392  0.06709320  1
  C  C359  1  0.75228015  0.46125489  0.18251046  1
  C  C360  1  0.93908257  0.36778610  0.23255029  1
  H  H361  1  0.95686476  0.43492696  0.04359996  1
  C  C362  1  0.90586794  0.12541389  0.49289846  1
  C  C363  1  0.92843075  0.46064621  0.36940968  1
  C  C364  1  0.82615896  0.03222397  0.43759662  1
  O  O365  1  0.88013960  0.12863618  0.00185541  1
  C  C366  1  0.90951333  0.04128768  0.43323460  1
  H  H367  1  0.86490381  0.47007245  0.29917885  1
  H  H368  1  0.88058900  0.37298616  0.47640222  1
  C  C369  1  0.97724960  0.19838629  0.22954658  1
  C  C370  1  0.94352807  0.36132859  0.31963790  1
  O  O371  1  0.98401825  0.11592650  0.08094642  1
  H  H372  1  0.96617369  0.27680192  0.43354664  1
  Zn  Zn373  1  0.92923608  0.01806603  0.04202293  1
  C  C374  1  0.98264993  0.19206722  0.31995938  1
  H  H375  1  0.98414337  0.46782753  0.45087833  1
  C  C376  1  0.78386505  0.49514574  0.12287851  1
  C  C377  1  0.99522660  0.10920000  0.17863190  1
  H  H378  1  0.94058093  0.01771957  0.40676974  1
  C  C379  1  0.82348867  0.12172848  0.49103277  1
  H  H380  1  0.94921921  0.40822461  0.56733658  1
  H  H381  1  0.79871716  0.48112080  0.64440022  1
  C  C382  1  0.87855084  0.15054763  0.92525276  1
  H  H383  1  0.88440887  0.04824253  0.65055184  1
  C  C384  1  0.84762594  0.33721369  0.71423714  1
  C  C385  1  0.87780545  0.02482650  0.71736764  1
  H  H386  1  0.83707386  0.33270491  0.77779560  1
  C  C387  1  0.87521437  0.36329632  0.54212568  1
  H  H388  1  0.88595789  0.18799200  0.77091458  1
  H  H389  1  0.83085164  0.16669747  0.68091628  1
  C  C390  1  0.84473399  0.24619850  0.66143583  1
  O  O391  1  0.88683462  0.24017785  0.90093024  1
  C  C392  1  0.87912661  0.10337440  0.77955569  1
  H  H393  1  0.93659905  0.15964481  0.51497872  1
  C  C394  1  0.97156635  0.34089149  0.58380717  1
  C  C395  1  0.85919103  0.26342661  0.57686139  1
  H  H396  1  0.92501368  0.25731685  0.66300542  1
  C  C397  1  0.86603718  0.43420486  0.68435757  1
  C  C398  1  0.95904368  0.26345536  0.64420642  1
  C  C399  1  0.87474237  0.05956106  0.85832301  1
  H  H400  1  0.75986102  0.00406409  0.52496502  1
  C  C401  1  0.88221648  0.44588005  0.60222269  1
  C  C402  1  0.97629653  0.09726234  0.73767045  1
  C  C403  1  0.86391566  0.16570536  0.51795852  1
  O  O404  1  0.77796286  0.03923491  0.64843062  1
  C  C405  1  0.99027290  0.19525691  0.68336292  1
  Zn  Zn406  1  0.97659938  0.03909459  0.86743809  1
  O  O407  1  0.99555112  0.48383820  0.90386678  1
  C  C408  1  0.99750348  0.00788431  0.55588396  1
  H  H409  1  0.79205204  0.15460251  0.50972166  1
  C  C410  1  0.86943516  0.74892099  0.25234611  1
  H  H411  1  0.76244382  0.64942526  0.33758200  1
  C  C412  1  0.98966602  0.54720159  0.13226999  1
  H  H413  1  0.83396535  0.62159412  0.10069828  1
  C  C414  1  0.76516341  0.60954960  0.27621884  1
  C  C415  1  0.92565984  0.59160999  0.04647991  1
  H  H416  1  0.82926214  0.82291860  0.46712297  1
  H  H417  1  0.83954256  0.63476096  0.36785350  1
  C  C418  1  0.79828328  0.64519182  0.21901368  1
  C  C419  1  0.82220961  0.74553707  0.24703074  1
  C  C420  1  0.92875857  0.69620505  0.08087205  1
  H  H421  1  0.92386637  0.82598301  0.32144813  1
  C  C422  1  0.89260173  0.64214019  0.45578355  1
  C  C423  1  0.79398708  0.82448644  0.28593390  1
  H  H424  1  0.75690171  0.82489899  0.28045709  1
  C  C425  1  0.93543590  0.59439211  0.47794514  1
  H  H426  1  0.88946368  0.69684331  0.21020887  1
  O  O427  1  0.89688051  0.87489816  0.08042019  1
  C  C428  1  0.88849710  0.82691716  0.30303338  1
  C  C429  1  0.81395996  0.90427943  0.33473059  1
  H  H430  1  0.96331402  0.81446388  0.15876849  1
  C  C431  1  0.89565788  0.78139158  0.04881577  1
  C  C432  1  0.86293081  0.90928899  0.34217471  1
  C  C433  1  0.95951935  0.72948908  0.13917550  1
  C  C434  1  0.99052644  0.65199461  0.16399279  1
  C  C435  1  0.80914178  0.58674355  0.14449060  1
  C  C436  1  0.87021047  0.60015316  0.38596221  1
  C  C437  1  0.88662571  0.50534214  0.34713486  1
  N  N438  1  0.79493317  0.97681418  0.39191634  1
  C  C439  1  0.95652940  0.51966090  0.07297465  1
  C  C440  1  0.86944461  0.99314195  0.40611142  1
  C  C441  1  0.95430759  0.50765144  0.43081882  1
  H  H442  1  0.97885947  0.99945463  0.49703200  1
  C  C443  1  0.91550843  0.70307445  0.58684897  1
  C  C444  1  0.85015755  0.80531939  0.52083797  1
  C  C445  1  0.87285125  0.91455143  0.73760690  1
  H  H446  1  0.89811566  0.51821314  0.58031106  1
  C  C447  1  0.87518993  0.84164365  0.65958148  1
  C  C448  1  0.86713846  0.87733595  0.82011988  1
  H  H449  1  0.96386390  0.57555508  0.71324783  1
  N  N450  1  0.94717087  0.63443300  0.55638456  1
  C  C451  1  0.98923753  0.60964253  0.59108524  1
  H  H452  1  0.92869059  0.74637487  0.71733658  1
  H  H453  1  0.79088553  0.75227952  0.62275550  1
  C  C454  1  0.97428432  0.97096383  0.63388593  1
  H  H455  1  0.81613655  0.66319354  0.77072009  1
  N  N456  1  0.98561540  0.93482506  0.98428552  1
  H  H457  1  0.94311926  0.92143127  0.62002548  1
  C  C458  1  0.84655926  0.86678536  0.59206268  1
  H  H459  1  0.85732256  0.79284589  0.82992032  1
  O  O460  1  0.97455650  0.99772411  0.70690977  1
  C  C461  1  0.90959026  0.76197853  0.66318249  1
  C  C462  1  0.86614596  0.53462995  0.74603639  1
  C  C463  1  0.82310798  0.58774035  0.73727322  1
  C  C464  1  0.79174199  0.55448996  0.68504280  1
  H  H465  1  0.86624922  0.92441153  0.94824427  1
  H  H466  1  0.82179887  0.92971733  0.59702210  1
  C  C467  1  0.99392085  0.58006224  0.67541299  1
  O  O468  1  0.89441560  0.55764653  0.79599868  1
  C  C469  1  0.88324121  0.72373445  0.51973050  1
  C  C470  1  0.86750948  0.95181778  0.88295658  1
  C  C471  1  0.76001334  0.96519627  0.67878309  1
  C  C472  1  0.76077120  0.73143589  0.66311975  1
  C  C473  1  0.75274017  0.61718274  0.66922274  1
  O  O474  1  0.87028364  0.75640974  0.99581259  1
  H  H475  1  0.90418891  0.57328033  0.98919372  1
