# generated using pymatgen
data_Zn4H12C24O13
_symmetry_space_group_name_H-M   'P 1'
_cell_length_a   15.03730738
_cell_length_b   21.33059986
_cell_length_c   20.97171820
_cell_angle_alpha   90.00000000
_cell_angle_beta   90.00000000
_cell_angle_gamma   90.00000000
_symmetry_Int_Tables_number   1
_chemical_formula_structural   Zn4H12C24O13
_chemical_formula_sum   'Zn32 H96 C192 O104'
_cell_volume   6726.77899938
_cell_formula_units_Z   8
loop_
 _symmetry_equiv_pos_site_id
 _symmetry_equiv_pos_as_xyz
  1  'x, y, z'
loop_
 _atom_site_type_symbol
 _atom_site_label
 _atom_site_symmetry_multiplicity
 _atom_site_fract_x
 _atom_site_fract_y
 _atom_site_fract_z
 _atom_site_occupancy
  H  H0  1  0.36983075  0.12779872  0.09468907  1
  H  H1  1  0.25444046  0.31382769  0.09731854  1
  C  C2  1  0.29643673  0.27855735  0.07394916  1
  C  C3  1  0.45190637  0.35628730  0.15182930  1
  C  C4  1  0.43501811  0.19581226  0.03110754  1
  C  C5  1  0.30716870  0.21756674  0.09839707  1
  C  C6  1  0.36908535  0.35965681  0.18136953  1
  H  H7  1  0.06318758  0.16831826  0.08392700  1
  C  C8  1  0.37435764  0.17724117  0.07722949  1
  C  C9  1  0.24416835  0.18778119  0.14389421  1
  O  O10  1  0.24729158  0.13359536  0.16389460  1
  C  C11  1  0.30100233  0.02180352  0.05430654  1
  O  O12  1  0.04212873  0.09220159  0.16847294  1
  C  C13  1  0.41432909  0.43872686  0.07851716  1
  Zn  Zn14  1  0.15592747  0.09355548  0.23437205  1
  C  C15  1  0.33070183  0.44424472  0.10805655  1
  C  C16  1  0.35694982  0.29746069  0.02936672  1
  O  O17  1  0.18288981  0.22614244  0.16137339  1
  H  H18  1  0.34984773  0.32739731  0.21834236  1
  H  H19  1  0.36301910  0.34419251  0.00931116  1
  C  C20  1  0.30885114  0.40294786  0.15694217  1
  O  O21  1  0.16232009  0.44978500  0.16339515  1
  C  C22  1  0.47624608  0.39527059  0.10121278  1
  C  C23  1  0.21294706  0.40906085  0.18039294  1
  H  H24  1  0.27942189  0.47235854  0.08441454  1
  H  H25  1  0.43326775  0.47116674  0.03743948  1
  H  H26  1  0.49630796  0.32025128  0.16528895  1
  O  O27  1  0.37125203  0.01431863  0.08314958  1
  H  H28  1  0.02932056  0.25846164  0.01372893  1
  C  C29  1  0.42266206  0.25627958  0.00333582  1
  O  O30  1  0.19590632  0.37459826  0.22805490  1
  H  H31  1  0.48748868  0.16513604  0.01197158  1
  C  C32  1  0.00742460  0.20006826  0.09447620  1
  Zn  Zn33  1  0.17493631  0.27718400  0.24662222  1
  Zn  Zn34  1  0.19820267  0.11938875  0.37861169  1
  C  C35  1  0.36669825  0.41990978  0.40194160  1
  H  H36  1  0.32223221  0.04485452  0.35566965  1
  C  C37  1  0.32863314  0.19200301  0.29001129  1
  O  O38  1  0.28092361  0.14313135  0.29441573  1
  H  H39  1  0.43428204  0.08327871  0.29969756  1
  C  C40  1  0.11556164  0.45950438  0.45509893  1
  O  O41  1  0.09660061  0.11073747  0.31808227  1
  O  O42  1  0.29714384  0.24626194  0.29271732  1
  O  O43  1  0.09173199  0.25180046  0.32415800  1
  C  C44  1  0.42731281  0.18763281  0.29012056  1
  C  C45  1  0.22148290  0.01016930  0.46253364  1
  Zn  Zn46  1  0.17071929  0.39604087  0.39602226  1
  C  C47  1  0.46626790  0.12924402  0.29433099  1
  C  C48  1  0.07336683  0.33718414  0.44880278  1
  H  H49  1  0.44079126  0.28744008  0.28758931  1
  C  C50  1  0.06541307  0.46381355  0.39363068  1
  C  C51  1  0.03831407  0.40430918  0.35470237  1
  O  O52  1  0.17384598  0.02957389  0.41487758  1
  C  C53  1  0.05245280  0.34299476  0.38189465  1
  O  O54  1  0.39654850  0.37948345  0.36648144  1
  C  C55  1  0.36134672  0.02988668  0.39635956  1
  C  C56  1  0.47820259  0.24484520  0.28783231  1
  O  O57  1  0.32261635  0.46593492  0.38188107  1
  O  O58  1  0.19727424  0.19590377  0.44357804  1
  C  C59  1  0.02867352  0.28363461  0.34485489  1
  H  H60  1  0.49758513  0.01852564  0.35273451  1
  C  C61  1  0.10433765  0.39738137  0.48465032  1
  H  H62  1  0.04269982  0.29903821  0.47571529  1
  C  C63  1  0.15103754  0.19409130  0.49389428  1
  H  H64  1  0.25640769  0.29273941  0.49425893  1
  H  H65  1  0.44376865  0.32522832  0.46121231  1
  C  C66  1  0.38654316  0.41701986  0.47430036  1
  C  C67  1  0.32184932  0.01407639  0.45465947  1
  C  C68  1  0.42761213  0.36119942  0.49455525  1
  C  C69  1  0.45224962  0.02091989  0.39505153  1
  C  C70  1  0.49640516  0.00229603  0.45212271  1
  C  C71  1  0.22825880  0.33428901  0.59005796  1
  H  H72  1  0.26609645  0.37790002  0.58631552  1
  C  C73  1  0.10801748  0.23375811  0.60240324  1
  H  H74  1  0.46505589  0.31157380  0.57855748  1
  C  C75  1  0.17596239  0.32803706  0.64385837  1
  C  C76  1  0.43901117  0.35536686  0.55952732  1
  C  C77  1  0.11809549  0.27653036  0.65132293  1
  H  H78  1  0.06293123  0.19160041  0.61139020  1
  C  C79  1  0.15540714  0.24298534  0.54619039  1
  H  H80  1  0.36078604  0.49798770  0.61642626  1
  C  C81  1  0.21636260  0.29264344  0.53807163  1
  O  O82  1  0.22713485  0.42077296  0.68812410  1
  C  C83  1  0.41932663  0.40379361  0.60202756  1
  C  C84  1  0.43312600  0.39512469  0.67214742  1
  H  H85  1  0.08431684  0.26860465  0.69611133  1
  O  O86  1  0.40950623  0.44320202  0.70353918  1
  C  C87  1  0.17922383  0.37547664  0.69670605  1
  O  O88  1  0.45329048  0.34336383  0.69706266  1
  C  C89  1  0.36380019  0.46486582  0.51691351  1
  H  H90  1  0.09330543  0.39918849  0.53661539  1
  C  C91  1  0.38081309  0.46080923  0.58190091  1
  O  O92  1  0.13348687  0.36513357  0.74682942  1
  C  C93  1  0.03139699  0.13424769  0.71820309  1
  O  O94  1  0.01830415  0.04749438  0.62012232  1
  H  H95  1  0.08410830  0.09647460  0.71321256  1
  O  O96  1  0.09908253  0.14944810  0.50314585  1
  C  C97  1  0.38447261  0.08533231  0.96699966  1
  O  O98  1  0.03784028  0.28489554  0.85470736  1
  O  O99  1  0.47389430  0.33500917  0.92751329  1
  C  C100  1  0.03365788  0.17898294  0.76481267  1
  O  O101  1  0.30206996  0.36383551  0.81978411  1
  H  H102  1  0.44767842  0.14422801  0.90028731  1
  H  H103  1  0.08909977  0.17020162  0.80083795  1
  C  C104  1  0.48165851  0.27930076  0.95264228  1
  C  C105  1  0.22508330  0.08098143  0.97142255  1
  C  C106  1  0.29221580  0.19716879  0.84536357  1
  O  O107  1  0.21989903  0.21846444  0.82563575  1
  C  C108  1  0.38366914  0.12621976  0.91611017  1
  Zn  Zn109  1  0.35404476  0.38192283  0.90293432  1
  C  C110  1  0.21953687  0.12537073  0.92269093  1
  O  O111  1  0.36510241  0.21283658  0.82037426  1
  C  C112  1  0.29872650  0.14854333  0.89738407  1
  Zn  Zn113  1  0.18062748  0.31428677  0.82874921  1
  H  H114  1  0.15441949  0.14312064  0.90126686  1
  O  O115  1  0.30811926  0.46944433  0.93644268  1
  Zn  Zn116  1  0.31571888  0.45058255  0.77711022  1
  Zn  Zn117  1  0.39226148  0.31159888  0.77842117  1
  H  H118  1  0.44825862  0.06973941  0.99097058  1
  C  C119  1  0.30693438  0.06312880  0.99632314  1
  H  H120  1  0.16296417  0.06647510  0.99629069  1
  H  H121  1  0.13917108  0.67997843  0.05234129  1
  O  O122  1  0.11518139  0.84559638  0.10863015  1
  O  O123  1  0.42192187  0.71525253  0.13109648  1
  C  C124  1  0.44651462  0.71725384  0.07408642  1
  O  O125  1  0.32648238  0.87185867  0.10518856  1
  O  O126  1  0.22945662  0.99927893  0.07486361  1
  O  O127  1  0.31192271  0.97544686  0.23894884  1
  Zn  Zn128  1  0.38309758  0.93433104  0.15963330  1
  Zn  Zn129  1  0.30898505  0.78764035  0.14934177  1
  O  O130  1  0.48403468  0.76689792  0.05044433  1
  H  H131  1  0.32654340  0.62422083  0.09483278  1
  Zn  Zn132  1  0.21103701  0.90042472  0.06202748  1
  C  C133  1  0.11938212  0.78915553  0.09555554  1
  C  C134  1  0.33891867  0.57230725  0.01142814  1
  O  O135  1  0.17747879  0.75460280  0.12322623  1
  C  C136  1  0.35765680  0.62171774  0.05015726  1
  C  C137  1  0.05670690  0.76383862  0.04790852  1
  Zn  Zn138  1  0.40102627  0.86904235  0.03139629  1
  O  O139  1  0.16952177  0.99021118  0.23148732  1
  C  C140  1  0.41651739  0.66900980  0.02828045  1
  O  O141  1  0.35926783  0.79375782  0.24666600  1
  H  H142  1  0.29922441  0.53209385  0.02649356  1
  C  C143  1  0.07986030  0.70214352  0.02793136  1
  C  C144  1  0.11577649  0.72187061  0.28803890  1
  C  C145  1  0.11361493  0.66635529  0.32557974  1
  C  C146  1  0.27334597  0.65907362  0.32997100  1
  H  H147  1  0.18526443  0.59484030  0.37585775  1
  C  C148  1  0.09753515  0.85063297  0.35872169  1
  O  O149  1  0.11381502  0.56675402  0.47433132  1
  H  H150  1  0.33212247  0.63759361  0.35251436  1
  H  H151  1  0.03146416  0.83089472  0.36322465  1
  C  C152  1  0.25543775  0.83868786  0.38608134  1
  C  C153  1  0.20948181  0.91637912  0.30742352  1
  O  O154  1  0.43919588  0.71653527  0.28187300  1
  C  C155  1  0.27597895  0.88384639  0.34205979  1
  C  C156  1  0.18893292  0.63633510  0.34705410  1
  H  H157  1  0.34421619  0.89836568  0.32742854  1
  C  C158  1  0.16540239  0.82120678  0.39367479  1
  C  C159  1  0.14543597  0.77179188  0.44157943  1
  C  C160  1  0.11998038  0.90137702  0.32132881  1
  H  H161  1  0.06547028  0.92675292  0.29722808  1
  H  H162  1  0.30301188  0.81269624  0.41420745  1
  C  C163  1  0.36607812  0.74338537  0.27537833  1
  O  O164  1  0.20366972  0.75391664  0.48068072  1
  Zn  Zn165  1  0.04057398  0.65628325  0.48436734  1
  C  C166  1  0.00343217  0.92986785  0.46045381  1
  C  C167  1  0.27705404  0.71460917  0.29329395  1
  O  O168  1  0.06841876  0.74969276  0.44714794  1
  H  H169  1  0.06026948  0.95289021  0.43990418  1
  H  H170  1  0.04077047  0.50967641  0.38012941  1
  C  C171  1  0.01790693  0.63962562  0.34038705  1
  C  C172  1  0.19936488  0.74646427  0.27514224  1
  C  C173  1  0.23561105  0.96292754  0.25655348  1
  H  H174  1  0.20074900  0.78999495  0.25082465  1
  H  H175  1  0.05541476  0.74293560  0.26952685  1
  O  O176  1  0.18602492  0.99447000  0.51214975  1
  C  C177  1  0.45909465  0.59880381  0.64821943  1
  O  O178  1  0.29699219  0.72052653  0.60905214  1
  O  O179  1  0.07758470  0.81430237  0.59823498  1
  H  H180  1  0.09735615  0.89851469  0.53181502  1
  O  O181  1  0.29065571  0.62103333  0.58995213  1
  C  C182  1  0.42257972  0.65824061  0.64307908  1
  C  C183  1  0.33262903  0.66727223  0.61118910  1
  Zn  Zn184  1  0.16725743  0.72737300  0.57675963  1
  O  O185  1  0.17651755  0.63278134  0.71533290  1
  O  O186  1  0.15126578  0.50926887  0.55606977  1
  O  O187  1  0.07298154  0.66262008  0.57747830  1
  H  H188  1  0.49757975  0.97205044  0.55513121  1
  O  O189  1  0.04682726  0.66621316  0.74614823  1
  H  H190  1  0.42315234  0.55929961  0.62579003  1
  Zn  Zn191  1  0.15080105  0.59095820  0.61963896  1
  H  H192  1  0.41188712  0.75682561  0.67042901  1
  H  H193  1  0.32593358  0.98474476  0.55771113  1
  C  C194  1  0.44991814  0.71217772  0.67697757  1
  C  C195  1  0.45711989  0.98985210  0.51081054  1
  C  C196  1  0.12197021  0.51363398  0.50003837  1
  C  C197  1  0.36374421  0.99576313  0.51121143  1
  C  C198  1  0.02608386  0.89752020  0.51487315  1
  H  H199  1  0.33343477  0.50833204  0.50026427  1
  C  C200  1  0.30330106  0.75052515  0.84781268  1
  C  C201  1  0.33582610  0.51874742  0.90541926  1
  C  C202  1  0.26789485  0.70968159  0.80458502  1
  C  C203  1  0.41647006  0.62265420  0.92176847  1
  C  C204  1  0.17420131  0.70584858  0.79978567  1
  C  C205  1  0.43687662  0.67094787  0.96243949  1
  H  H206  1  0.30699047  0.67873271  0.77269746  1
  C  C207  1  0.36613573  0.57198797  0.94707088  1
  C  C208  1  0.28550951  0.83518869  0.92805411  1
  H  H209  1  0.37468500  0.75548561  0.85426684  1
  H  H210  1  0.43552308  0.62861887  0.87285857  1
  O  O211  1  0.23275731  0.87336318  0.95500611  1
  H  H212  1  0.10751691  0.80384115  0.91656441  1
  C  C213  1  0.15007486  0.77792444  0.88465745  1
  C  C214  1  0.11238553  0.73786037  0.84007040  1
  O  O215  1  0.36539643  0.84830950  0.92956844  1
  H  H216  1  0.04831901  0.62624850  0.96442052  1
  C  C217  1  0.24391051  0.78604067  0.88704386  1
  H  H218  1  0.03782406  0.72728969  0.83113991  1
  O  O219  1  0.33184932  0.52405256  0.84558846  1
  C  C220  1  0.03217153  0.67590667  0.97846882  1
  H  H221  1  0.47798318  0.70904135  0.94639359  1
  H  H222  1  0.49309436  0.91841961  0.87299260  1
  C  C223  1  0.13032103  0.66514616  0.75265331  1
  H  H224  1  0.82307679  0.31227264  0.15775915  1
  C  C225  1  0.56154690  0.38455024  0.06684469  1
  O  O226  1  0.60763878  0.33989353  0.08738347  1
  O  O227  1  0.58190175  0.41627093  0.01946754  1
  C  C228  1  0.89184794  0.22456239  0.17221413  1
  H  H229  1  0.67490492  0.08162204  0.22461596  1
  C  C230  1  0.91390538  0.28825914  0.07614309  1
  H  H231  1  0.85043202  0.21327932  0.21522398  1
  C  C232  1  0.68855413  0.11737848  0.12837647  1
  O  O233  1  0.74748075  0.20037167  0.02951325  1
  C  C234  1  0.87673063  0.27957543  0.13800295  1
  C  C235  1  0.65701616  0.07497058  0.17408496  1
  O  O236  1  0.82228911  0.37367828  0.05843788  1
  C  C237  1  0.58085950  0.01405592  0.08683130  1
  C  C238  1  0.61009395  0.05786064  0.04343391  1
  H  H239  1  0.73528151  0.15766771  0.13765648  1
  C  C240  1  0.66196686  0.10919677  0.06471474  1
  C  C241  1  0.60314471  0.02542792  0.15115150  1
  C  C242  1  0.88626980  0.34523857  0.03573197  1
  Zn  Zn243  1  0.71489435  0.29935057  0.02701183  1
  C  C244  1  0.69324750  0.15616906  0.01655007  1
  C  C245  1  0.95863306  0.18470724  0.14847040  1
  C  C246  1  0.97898538  0.12627259  0.18583556  1
  C  C247  1  0.98532582  0.25048896  0.05820197  1
  O  O248  1  0.92936274  0.10911047  0.23048890  1
  O  O249  1  0.88651984  0.13422541  0.40353978  1
  H  H250  1  0.59663738  0.08742236  0.30543312  1
  O  O251  1  0.71582236  0.22420428  0.45667717  1
  H  H252  1  0.94231091  0.40977633  0.47685904  1
  O  O253  1  0.88584508  0.29543829  0.45489320  1
  Zn  Zn254  1  0.84019661  0.22370778  0.39357932  1
  C  C255  1  0.55806324  0.13138319  0.29920401  1
  C  C256  1  0.61137271  0.18553836  0.29603026  1
  C  C257  1  0.71099025  0.18132031  0.29882222  1
  Zn  Zn258  1  0.77506262  0.08083160  0.40591986  1
  C  C259  1  0.56864282  0.24260220  0.28822724  1
  O  O260  1  0.74612592  0.12918363  0.31230220  1
  H  H261  1  0.61387133  0.28528144  0.28509594  1
  O  O262  1  0.75268196  0.23034146  0.29769298  1
  O  O263  1  0.95095846  0.27046754  0.33290153  1
  O  O264  1  0.71732469  0.12815834  0.48665798  1
  Zn  Zn265  1  0.96634249  0.10152996  0.33212342  1
  O  O266  1  0.95984853  0.00016893  0.35270809  1
  Zn  Zn267  1  0.95331123  0.14304262  0.48918338  1
  O  O268  1  0.63847197  0.00699518  0.40026374  1
  H  H269  1  0.99694772  0.40694960  0.31256917  1
  H  H270  1  0.55527529  0.48492664  0.45687304  1
  Zn  Zn271  1  0.84012573  0.41226593  0.60718851  1
  C  C272  1  0.70849468  0.16016844  0.61746030  1
  C  C273  1  0.70256975  0.20669270  0.56932404  1
  H  H274  1  0.71907509  0.11202098  0.59914801  1
  H  H275  1  0.68423736  0.30925980  0.54848354  1
  C  C276  1  0.95052677  0.38761825  0.66662737  1
  C  C277  1  0.90628863  0.28808592  0.51213377  1
  C  C278  1  0.91591867  0.40840105  0.52585749  1
  C  C279  1  0.69331314  0.27103139  0.58148865  1
  H  H280  1  0.85110846  0.26890895  0.72383688  1
  C  C281  1  0.96236269  0.13764026  0.67229878  1
  C  C282  1  0.90501256  0.34335627  0.55250377  1
  O  O283  1  0.90551847  0.09740567  0.57541051  1
  C  C284  1  0.68549387  0.28825295  0.64778920  1
  C  C285  1  0.89859068  0.18542934  0.67799871  1
  H  H286  1  0.84143628  0.19163883  0.64542300  1
  H  H287  1  0.91598559  0.28430645  0.63794600  1
  C  C288  1  0.91778682  0.33370906  0.62180691  1
  H  H289  1  0.67529951  0.33651728  0.66191852  1
  C  C290  1  0.69862352  0.17650470  0.67918766  1
  C  C291  1  0.95705595  0.45693942  0.57151321  1
  C  C292  1  0.68492075  0.24109156  0.69541518  1
  C  C293  1  0.90112817  0.23066144  0.72435234  1
  H  H294  1  0.70415569  0.14232873  0.71948108  1
  C  C295  1  0.95393569  0.45103614  0.64080709  1
  O  O296  1  0.92829966  0.23691528  0.53502456  1
  C  C297  1  0.96280641  0.08994013  0.62113270  1
  H  H298  1  0.97689391  0.37915570  0.71565980  1
  O  O299  1  0.62670835  0.48671731  0.57675465  1
  C  C300  1  0.71182856  0.18513386  0.50062050  1
  O  O301  1  0.67704359  0.21494696  0.80337074  1
  C  C302  1  0.97364926  0.28002578  0.81912077  1
  Zn  Zn303  1  0.82015198  0.34399067  0.89155154  1
  O  O304  1  0.66979411  0.14947900  0.95959952  1
  O  O305  1  0.82465973  0.44786791  0.88688121  1
  O  O306  1  0.71040089  0.31814851  0.93137765  1
  C  C307  1  0.97343978  0.22870957  0.76881661  1
  O  O308  1  0.68170677  0.46569114  0.88421542  1
  Zn  Zn309  1  0.62038905  0.37937086  0.91943159  1
  O  O310  1  0.91010440  0.31779367  0.81898052  1
  H  H311  1  0.58713111  0.05568560  0.99281716  1
  O  O312  1  0.91330885  0.35897257  0.98228890  1
  Zn  Zn313  1  0.66827067  0.23687766  0.89682514  1
  O  O314  1  0.53977775  0.24240548  0.93492501  1
  C  C315  1  0.75790346  0.48047787  0.89767716  1
  O  O316  1  0.65726668  0.31301731  0.78509550  1
  C  C317  1  0.67159554  0.26018176  0.76282377  1
  O  O318  1  0.61773007  0.73621090  0.16285746  1
  C  C319  1  0.78002895  0.69776960  0.05420551  1
  C  C320  1  0.99052306  0.79983710  0.01708105  1
  Zn  Zn321  1  0.62047070  0.79039027  0.08445820  1
  O  O322  1  0.81209994  0.69374446  0.10833849  1
  Zn  Zn323  1  0.73288302  0.71381625  0.19626370  1
  H  H324  1  0.54088594  0.97409568  0.07363550  1
  O  O325  1  0.52376104  0.93376757  0.17951375  1
  H  H326  1  0.89505783  0.59943943  0.05373680  1
  O  O327  1  0.72339484  0.74022057  0.03722089  1
  Zn  Zn328  1  0.53136106  0.68714964  0.20918332  1
  O  O329  1  0.63892912  0.87654900  0.03142477  1
  C  C330  1  0.56407383  0.98081463  0.19874659  1
  C  C331  1  0.84499943  0.59710379  0.01530608  1
  C  C332  1  0.78385032  0.64585412  0.00775803  1
  H  H333  1  0.97599901  0.84719330  0.03637145  1
  O  O334  1  0.75687564  0.80649615  0.24694618  1
  C  C335  1  0.83339442  0.75957241  0.36068955  1
  C  C336  1  0.69240826  0.78168809  0.41483288  1
  O  O337  1  0.65409848  0.85673605  0.30052300  1
  O  O338  1  0.96036964  0.65976900  0.30474581  1
  C  C339  1  0.59583972  0.54145897  0.37880793  1
  C  C340  1  0.74209456  0.57880864  0.45562963  1
  H  H341  1  0.62397562  0.80021930  0.41520019  1
  C  C342  1  0.86239997  0.72604287  0.41432779  1
  C  C343  1  0.72210482  0.74756949  0.46684676  1
  C  C344  1  0.74832850  0.78928196  0.36083408  1
  H  H345  1  0.78951881  0.63549865  0.37775809  1
  C  C346  1  0.71651053  0.81772893  0.29893958  1
  C  C347  1  0.89738794  0.97166148  0.37850265  1
  C  C348  1  0.65720339  0.61344162  0.29316882  1
  H  H349  1  0.79979881  0.58844633  0.48622062  1
  C  C350  1  0.67715390  0.53787196  0.47857581  1
  C  C351  1  0.60656656  0.51854454  0.44031918  1
  H  H352  1  0.87037832  0.76454744  0.31658481  1
  C  C353  1  0.73547578  0.60224421  0.39426420  1
  Zn  Zn354  1  0.67820469  0.94654175  0.32723103  1
  C  C355  1  0.80656630  0.71888219  0.46732098  1
  H  H356  1  0.92893031  0.70376812  0.41235421  1
  H  H357  1  0.78277700  0.89543865  0.44224750  1
  C  C358  1  0.91677930  0.93253862  0.43394298  1
  C  C359  1  0.66298742  0.58264423  0.35736102  1
  H  H360  1  0.53709910  0.53160774  0.34585973  1
  C  C361  1  0.59626959  0.99334725  0.45262899  1
  C  C362  1  0.85393805  0.89527015  0.46166961  1
  O  O363  1  0.81891587  0.98147487  0.35976719  1
  O  O364  1  0.71906083  0.64902396  0.27659209  1
  O  O365  1  0.58405934  0.60888720  0.26527774  1
  O  O366  1  0.63504941  0.96875112  0.49649405  1
  O  O367  1  0.99627596  0.61645235  0.39491169  1
  O  O368  1  0.58931924  0.98985263  0.25402477  1
  C  C369  1  0.57182447  0.64755764  0.71237757  1
  O  O370  1  0.95603340  0.51365758  0.73394247  1
  C  C371  1  0.99745512  0.80694485  0.58715663  1
  O  O372  1  0.77212109  0.67194958  0.56615471  1
  O  O373  1  0.63255299  0.83371447  0.68978010  1
  O  O374  1  0.90600119  0.65517926  0.52928208  1
  C  C375  1  0.87695769  0.85571513  0.51241568  1
  O  O376  1  0.94398288  0.77209918  0.61683221  1
  H  H377  1  0.67783845  0.74005606  0.50792666  1
  O  O378  1  0.75123605  0.53424507  0.58589362  1
  C  C379  1  0.68495395  0.51642208  0.55050627  1
  Zn  Zn380  1  0.77930658  0.61120681  0.64791645  1
  C  C381  1  0.97248078  0.51131399  0.67563443  1
  C  C382  1  0.83170517  0.68130104  0.52446947  1
  O  O383  1  0.87051750  0.64590426  0.70760549  1
  O  O384  1  0.70243137  0.58464339  0.73641712  1
  Zn  Zn385  1  0.96751643  0.66987636  0.63986428  1
  C  C386  1  0.68363620  0.81921087  0.73071794  1
  H  H387  1  0.57131623  0.54359531  0.68541451  1
  H  H388  1  0.82737759  0.82927767  0.53747998  1
  C  C389  1  0.53930581  0.59252036  0.68149644  1
  O  O390  1  0.75721491  0.78861195  0.71657182  1
  C  C391  1  0.96245886  0.85236229  0.53764671  1
  O  O392  1  0.99737823  0.55924194  0.64447252  1
  H  H393  1  0.97976830  0.50221082  0.55152086  1
  H  H394  1  0.55349064  0.74822409  0.73874763  1
  C  C395  1  0.52704662  0.70677777  0.71147801  1
  C  C396  1  0.65772350  0.63360737  0.74678962  1
  O  O397  1  0.93338240  0.63372656  0.87459967  1
  H  H398  1  0.65583714  0.58328632  0.89083992  1
  C  C399  1  0.91623741  0.68958307  0.88880197  1
  C  C400  1  0.71800206  0.64699071  0.95787998  1
  C  C401  1  0.60857392  0.87379242  0.91899225  1
  C  C402  1  0.71273964  0.81958562  0.85024751  1
  O  O403  1  0.87012689  0.72672950  0.85631319  1
  C  C404  1  0.77655434  0.54258917  0.93081677  1
  H  H405  1  0.77953570  0.79801044  0.84053534  1
  C  C406  1  0.94404498  0.77103070  0.96746879  1
  C  C407  1  0.71201751  0.59162442  0.92429123  1
  C  C408  1  0.55724380  0.89035869  0.86714094  1
  H  H409  1  0.88877045  0.79240804  0.94307032  1
  C  C410  1  0.58886470  0.89244154  0.98602660  1
  C  C411  1  0.68842192  0.83803279  0.91037671  1
  H  H412  1  0.66487918  0.68309567  0.95607739  1
  O  O413  1  0.68558716  0.67087603  0.78741560  1
  H  H414  1  0.72610667  0.82755044  0.95139283  1
  C  C415  1  0.96578357  0.71000036  0.94741754  1
  C  C416  1  0.65539606  0.83842674  0.79868950  1
  C  C417  1  0.57784180  0.87264763  0.80543176  1
  Zn  Zn418  1  0.81349711  0.71216569  0.75728166  1
  Zn  Zn419  1  0.93004600  0.60229009  0.77690156  1
  O  O420  1  0.51367854  0.91900920  0.99220191  1
  C  C421  1  0.85011647  0.54791756  0.97211685  1
  H  H422  1  0.54320678  0.88612698  0.76181515  1
  H  H423  1  0.89818824  0.51021087  0.97627910  1
