# generated using pymatgen
data_Zn11H18(C3O2)18
_symmetry_space_group_name_H-M   'P 1'
_cell_length_a   13.16504142
_cell_length_b   17.65007622
_cell_length_c   16.38728687
_cell_angle_alpha   90.00000000
_cell_angle_beta   90.00000000
_cell_angle_gamma   90.00000000
_symmetry_Int_Tables_number   1
_chemical_formula_structural   Zn11H18(C3O2)18
_chemical_formula_sum   'Zn22 H36 C108 O72'
_cell_volume   3807.81527166
_cell_formula_units_Z   2
loop_
 _symmetry_equiv_pos_site_id
 _symmetry_equiv_pos_as_xyz
  1  'x, y, z'
loop_
 _atom_site_type_symbol
 _atom_site_label
 _atom_site_symmetry_multiplicity
 _atom_site_fract_x
 _atom_site_fract_y
 _atom_site_fract_z
 _atom_site_occupancy
  C  C0  1  0.15505829  0.11449929  0.16327354  1
  C  C1  1  0.12022426  0.18536414  0.12451580  1
  O  O2  1  0.22908075  0.07682092  0.13770524  1
  C  C3  1  0.41865523  0.37790498  0.19819866  1
  C  C4  1  0.18482025  0.22064891  0.06678956  1
  C  C5  1  0.15054868  0.29335395  0.04398914  1
  O  O6  1  0.10055914  0.08693145  0.21968758  1
  C  C7  1  0.31953726  0.48320744  0.17221178  1
  H  H8  1  0.25392204  0.19420404  0.04418089  1
  C  C9  1  0.40260746  0.43906280  0.14396164  1
  H  H10  1  0.45842022  0.45827692  0.09699779  1
  C  C11  1  0.06011160  0.32866952  0.06528806  1
  H  H12  1  0.03192183  0.38544189  0.04834047  1
  C  C13  1  0.02900595  0.21606116  0.15263289  1
  C  C14  1  0.25932680  0.46557012  0.24090218  1
  O  O15  1  0.12417399  0.42470498  0.36231545  1
  O  O16  1  0.20667502  0.32225389  0.39085873  1
  Zn  Zn17  1  0.09824406  0.46324642  0.48111982  1
  C  C18  1  0.27634947  0.39942897  0.28281959  1
  C  C19  1  0.20216707  0.37810569  0.35232674  1
  O  O20  1  0.37233095  0.44919051  0.47153614  1
  C  C21  1  0.05688163  0.01516789  0.47381684  1
  C  C22  1  0.36180455  0.35464351  0.26443686  1
  Zn  Zn23  1  0.48532963  0.28455454  0.25096625  1
  C  C24  1  0.25155103  0.35429524  0.64099817  1
  Zn  Zn25  1  0.43447618  0.05594215  0.58749621  1
  H  H26  1  0.18307767  0.39044774  0.64843944  1
  H  H27  1  0.09155136  0.13257646  0.63722505  1
  H  H28  1  0.36048641  0.18545975  0.71075410  1
  H  H29  1  0.47373039  0.35013876  0.53154226  1
  C  C30  1  0.31449235  0.44095913  0.53072316  1
  C  C31  1  0.05814070  0.10377497  0.58404723  1
  C  C32  1  0.41419115  0.32961509  0.57079086  1
  C  C33  1  0.32528575  0.37033607  0.58254852  1
  C  C34  1  0.26676534  0.28711363  0.68308634  1
  O  O35  1  0.23477483  0.47897147  0.53879216  1
  C  C36  1  0.35013349  0.23891163  0.67355527  1
  C  C37  1  0.42359049  0.26297077  0.61708724  1
  O  O38  1  0.27458656  0.08281502  0.58717155  1
  O  O39  1  0.00822887  0.37236877  0.53174005  1
  C  C40  1  0.22634786  0.03785360  0.54095617  1
  C  C41  1  0.18899257  0.26405204  0.74736205  1
  C  C42  1  0.10900543  0.05381155  0.53311271  1
  O  O43  1  0.45096045  0.43721535  0.96035023  1
  O  O44  1  0.39977344  0.04438658  0.78493821  1
  O  O45  1  0.20180799  0.20386788  0.78239988  1
  O  O46  1  0.11276036  0.30658497  0.76129904  1
  Zn  Zn47  1  0.31150530  0.49196923  0.95713487  1
  O  O48  1  0.20071256  0.41020413  0.97447443  1
  O  O49  1  0.29080564  0.30829090  0.95503919  1
  C  C50  1  0.21999239  0.34025210  0.98894914  1
  O  O51  1  0.35075342  0.91469113  0.05022681  1
  O  O52  1  0.10124003  0.91599933  0.04359299  1
  O  O53  1  0.14158851  0.67448813  0.03125094  1
  O  O54  1  0.21524968  0.90106744  0.22546308  1
  H  H55  1  0.17714941  0.62539676  0.04912019  1
  Zn  Zn56  1  0.24854061  0.72063632  0.10742587  1
  Zn  Zn57  1  0.22530545  0.95713447  0.10876145  1
  O  O58  1  0.24201982  0.77708744  0.22774997  1
  C  C59  1  0.02658389  0.65677656  0.08484773  1
  C  C60  1  0.30624146  0.55794187  0.12921782  1
  O  O61  1  0.26312895  0.61028291  0.16585033  1
  O  O62  1  0.35271099  0.57089611  0.06127203  1
  O  O63  1  0.37003108  0.79210546  0.06624906  1
  O  O64  1  0.04300358  0.62144036  0.14510642  1
  C  C65  1  0.37353871  0.85064272  0.02106748  1
  C  C66  1  0.00794445  0.91912741  0.06662168  1
  C  C67  1  0.26882386  0.84496901  0.24045675  1
  H  H68  1  0.12756683  0.70281072  0.43673693  1
  C  C69  1  0.36104829  0.84065196  0.29722732  1
  C  C70  1  0.39225846  0.91655604  0.32667543  1
  C  C71  1  0.46142412  0.77431584  0.41473067  1
  H  H72  1  0.35662091  0.70880645  0.32773460  1
  Zn  Zn73  1  0.34313693  0.85459014  0.42966138  1
  C  C74  1  0.38281111  0.76809063  0.35060783  1
  C  C75  1  0.47873861  0.92135895  0.38455548  1
  O  O76  1  0.47462925  0.64209462  0.42441887  1
  Zn  Zn77  1  0.49357850  0.52518592  0.45254839  1
  H  H78  1  0.09192961  0.97365874  0.43621396  1
  C  C79  1  0.49917384  0.84952152  0.44098147  1
  C  C80  1  0.09237452  0.73555256  0.48672097  1
  H  H81  1  0.19621134  0.50453464  0.25429858  1
  H  H82  1  0.13326551  0.78944838  0.68577928  1
  O  O83  1  0.27790714  0.71071154  0.64552670  1
  H  H84  1  0.14404751  0.54812790  0.65223960  1
  C  C85  1  0.13745588  0.74279088  0.56378526  1
  C  C86  1  0.09139294  0.77927174  0.62906010  1
  C  C87  1  0.23847817  0.70540027  0.57242106  1
  O  O88  1  0.27943096  0.66842465  0.52035254  1
  C  C89  1  0.07947297  0.56569864  0.69035055  1
  Zn  Zn90  1  0.35806999  0.62149446  0.69553029  1
  O  O91  1  0.03367139  0.56478354  0.52034937  1
  O  O92  1  0.47330905  0.98243618  0.68385546  1
  O  O93  1  0.43874684  0.52965930  0.63614809  1
  H  H94  1  0.48740681  0.85852558  0.70076250  1
  O  O95  1  0.27059024  0.98651753  0.50608439  1
  C  C96  1  0.40576737  0.84224129  0.93442100  1
  C  C97  1  0.40312598  0.91207528  0.89212587  1
  C  C98  1  0.09534597  0.57546140  0.77323865  1
  C  C99  1  0.43371254  0.91730308  0.81019732  1
  C  C100  1  0.43580692  0.77780064  0.88964766  1
  H  H101  1  0.03006188  0.61133411  0.88783854  1
  O  O102  1  0.21200633  0.56218297  0.88476797  1
  C  C103  1  0.19832716  0.55531325  0.81028583  1
  H  H104  1  0.39030831  0.96431138  0.92616976  1
  C  C105  1  0.02067969  0.60382115  0.82301686  1
  H  H106  1  0.43023917  0.72072251  0.92049250  1
  C  C107  1  0.47120349  0.78636492  0.81163221  1
  O  O108  1  0.49032686  0.65402893  0.77643405  1
  C  C109  1  0.46858288  0.85487818  0.76800701  1
  C  C110  1  0.44080412  0.98745844  0.75753786  1
  H  H111  1  0.04531931  0.77650899  0.99801700  1
  O  O112  1  0.26780148  0.53870055  0.76177411  1
  C  C113  1  0.77310181  0.05217006  0.16733582  1
  C  C114  1  0.77482904  0.03072795  0.07703794  1
  C  C115  1  0.90557937  0.32968573  0.14441105  1
  O  O116  1  0.84587301  0.08551375  0.20274568  1
  O  O117  1  0.88048476  0.39328840  0.13305610  1
  C  C118  1  0.84115931  0.07656659  0.03053718  1
  H  H119  1  0.88819009  0.11842098  0.06247169  1
  Zn  Zn120  1  0.81671190  0.24657012  0.20399126  1
  C  C121  1  0.99834354  0.28661355  0.11937507  1
  O  O122  1  0.70115717  0.02506238  0.20898201  1
  Zn  Zn123  1  0.98169593  0.01769155  0.23826070  1
  C  C124  1  0.58573874  0.22163001  0.03964752  1
  H  H125  1  0.98846675  0.18518915  0.19847811  1
  O  O126  1  0.64694750  0.26897652  0.04703281  1
  O  O127  1  0.52693102  0.17442540  0.03350420  1
  H  H128  1  0.59313602  0.16580387  0.30836636  1
  C  C129  1  0.78578447  0.43934474  0.43382295  1
  Zn  Zn130  1  0.69434521  0.06705850  0.32937778  1
  C  C131  1  0.85930281  0.30733941  0.39456038  1
  C  C132  1  0.73735914  0.44702330  0.34991267  1
  C  C133  1  0.85852448  0.37607419  0.44732107  1
  C  C134  1  0.71800101  0.37751085  0.30398004  1
  C  C135  1  0.78088967  0.30551935  0.32332756  1
  O  O136  1  0.60172024  0.21780956  0.28629351  1
  H  H137  1  0.88089330  0.24994427  0.41943083  1
  C  C138  1  0.72241433  0.23084909  0.31876588  1
  Zn  Zn139  1  0.87963881  0.40526798  0.33142984  1
  O  O140  1  0.75192878  0.17540845  0.35517590  1
  H  H141  1  0.65777011  0.37458288  0.25756901  1
  C  C142  1  0.95086099  0.02801685  0.46657162  1
  O  O143  1  0.53643742  0.04668124  0.37282367  1
  H  H144  1  0.75190208  0.47148733  0.48689943  1
  Zn  Zn145  1  0.72621933  0.30265847  0.63546857  1
  O  O146  1  0.95208003  0.20448820  0.68124170  1
  O  O147  1  0.81329659  0.19247808  0.61103868  1
  O  O148  1  0.85664000  0.38267356  0.58857098  1
  C  C149  1  0.95475681  0.11586358  0.57458535  1
  C  C150  1  0.56711925  0.45791994  0.69822504  1
  C  C151  1  0.63111993  0.39191627  0.68786820  1
  O  O152  1  0.58250101  0.25221613  0.55779258  1
  C  C153  1  0.91298239  0.37285723  0.52907230  1
  C  C154  1  0.90135010  0.17293828  0.62720551  1
  C  C155  1  0.51741357  0.21829090  0.59943808  1
  O  O156  1  0.52997870  0.15255416  0.62615845  1
  H  H157  1  0.81442186  0.08911041  0.50441446  1
  C  C158  1  0.89680796  0.07703227  0.51478749  1
  C  C159  1  0.77619607  0.35473970  0.78967973  1
  C  C160  1  0.60395280  0.34599712  0.84318622  1
  H  H161  1  0.63171505  0.31368207  0.89721601  1
  C  C162  1  0.58043172  0.42805593  0.85879114  1
  O  O163  1  0.95558214  0.17379192  0.91417777  1
  C  C164  1  0.91129601  0.11415786  0.88854538  1
  C  C165  1  0.80181353  0.00408234  0.91105718  1
  C  C166  1  0.85060445  0.06630712  0.94649588  1
  C  C167  1  0.53828095  0.45366059  0.93956531  1
  O  O168  1  0.80226315  0.42222383  0.79288291  1
  C  C169  1  0.55023446  0.47834844  0.78597314  1
  O  O170  1  0.83005637  0.30325731  0.82138883  1
  O  O171  1  0.91208902  0.10152494  0.81426195  1
  Zn  Zn172  1  0.97028942  0.24726663  0.80626473  1
  C  C173  1  0.66149564  0.34258967  0.75895474  1
  Zn  Zn174  1  0.50504229  0.36686626  0.75684671  1
  O  O175  1  0.87758027  0.49170558  0.95395148  1
  H  H176  1  0.90774062  0.48009822  0.90379996  1
  Zn  Zn177  1  0.73980066  0.48830988  0.89974559  1
  C  C178  1  0.84282411  0.71317443  0.12609293  1
  H  H179  1  0.83712165  0.90494031  0.16176370  1
  C  C180  1  0.92942657  0.70286290  0.06216374  1
  H  H181  1  0.66433465  0.94139624  0.07982932  1
  Zn  Zn182  1  0.81994598  0.78495843  0.02216593  1
  C  C183  1  0.79180388  0.78453018  0.14503196  1
  O  O184  1  0.97319843  0.97109399  0.10691059  1
  C  C185  1  0.84488292  0.85813712  0.11915193  1
  H  H186  1  0.81904792  0.66229898  0.16242305  1
  C  C187  1  0.93975216  0.85273898  0.06774980  1
  O  O188  1  0.66189601  0.85909892  0.20295909  1
  C  C189  1  0.97410791  0.78064776  0.03140677  1
  C  C190  1  0.70212484  0.79381994  0.19783143  1
  C  C191  1  0.71632614  0.97501193  0.04213595  1
  Zn  Zn192  1  0.93167244  0.58355297  0.01334137  1
  O  O193  1  0.66489069  0.73960067  0.23819281  1
  Zn  Zn194  1  0.72269546  0.68957211  0.34765185  1
  O  O195  1  0.71600015  0.57595646  0.31030407  1
  C  C196  1  0.93448011  0.74771056  0.39938842  1
  O  O197  1  0.94471743  0.96104057  0.34397640  1
  O  O198  1  0.61517289  0.70430283  0.44342306  1
  O  O199  1  0.58075271  0.50833125  0.34045785  1
  O  O200  1  0.97817443  0.71618590  0.34589741  1
  C  C201  1  0.67742145  0.51522008  0.33324452  1
  O  O202  1  0.84069109  0.76305529  0.39602161  1
  C  C203  1  0.52285712  0.99400372  0.42246763  1
  O  O204  1  0.79938332  0.99007305  0.40276698  1
  C  C205  1  0.89171629  0.98534273  0.40461754  1
  C  C206  1  0.99410441  0.76438875  0.48022346  1
  C  C207  1  0.52134304  0.70456079  0.42732411  1
  Zn  Zn208  1  0.51836717  0.88363405  0.25626590  1
  O  O209  1  0.53541543  0.99750056  0.49566746  1
  H  H210  1  0.57141468  0.84586905  0.47965350  1
  C  C211  1  0.90626443  0.61174228  0.70505565  1
  O  O212  1  0.83679354  0.83019205  0.68404555  1
  O  O213  1  0.58306595  0.73831406  0.71142199  1
  C  C214  1  0.93723368  0.79401660  0.54285318  1
  C  C215  1  0.99172873  0.79873252  0.61629927  1
  H  H216  1  0.83353654  0.63157776  0.68011639  1
  O  O217  1  0.87599081  0.59874204  0.53937925  1
  C  C218  1  0.95826689  0.58052627  0.56695214  1
  H  H219  1  0.85963800  0.81359929  0.53788862  1
  C  C220  1  0.93295569  0.83618578  0.68677241  1
  O  O221  1  0.57873695  0.51386746  0.56560033  1
  C  C222  1  0.98499266  0.58315685  0.65641479  1
  C  C223  1  0.52827890  0.50469634  0.63058014  1
  O  O224  1  0.97526453  0.85422816  0.74800310  1
  O  O225  1  0.70474872  0.88522632  0.84154200  1
  C  C226  1  0.51736326  0.71976162  0.76413854  1
  C  C227  1  0.68756098  0.89233138  0.91824038  1
  C  C228  1  0.84470848  0.66661222  0.83257963  1
  O  O229  1  0.85998102  0.67664526  0.90561088  1
  O  O230  1  0.76227282  0.68566428  0.79946899  1
  H  H231  1  0.81683882  0.99195173  0.84508498  1
  C  C232  1  0.73748909  0.95944908  0.95906276  1
  C  C233  1  0.92654072  0.62285474  0.78820606  1
  O  O234  1  0.64367827  0.84592213  0.96036226  1
  Zn  Zn235  1  0.71981167  0.79492916  0.76369438  1
  H  H236  1  0.52692645  0.53523775  0.80461245  1
  O  O237  1  0.59584755  0.50390614  0.96677709  1
