# generated using pymatgen
data_Zn2H3(C3O2)3
_symmetry_space_group_name_H-M   'P 1'
_cell_length_a   14.94538704
_cell_length_b   15.74235935
_cell_length_c   15.84908151
_cell_angle_alpha   90.00000000
_cell_angle_beta   90.00000000
_cell_angle_gamma   90.00000000
_symmetry_Int_Tables_number   1
_chemical_formula_structural   Zn2H3(C3O2)3
_chemical_formula_sum   'Zn8 H12 C36 O24'
_cell_volume   3728.90300867
_cell_formula_units_Z   4
loop_
 _symmetry_equiv_pos_site_id
 _symmetry_equiv_pos_as_xyz
  1  'x, y, z'
loop_
 _atom_site_type_symbol
 _atom_site_label
 _atom_site_symmetry_multiplicity
 _atom_site_fract_x
 _atom_site_fract_y
 _atom_site_fract_z
 _atom_site_occupancy
  O  O0  1  0.26513801  0.18758222  0.06454551  1
  Zn  Zn1  1  0.31479777  0.15899981  0.18159308  1
  Zn  Zn2  1  0.42967709  0.05895140  0.07602139  1
  O  O3  1  0.45288448  0.22143393  0.19042310  1
  O  O4  1  0.29696679  0.05812203  0.02979735  1
  O  O5  1  0.29603832  0.04177884  0.23653170  1
  C  C6  1  0.25332251  0.12400452  0.01538577  1
  O  O7  1  0.06633669  0.00492984  0.69804028  1
  C  C8  1  0.07194053  0.20570782  0.86640574  1
  C  C9  1  0.12103269  0.06885743  0.82257549  1
  C  C10  1  0.18857821  0.13095317  0.94130317  1
  C  C11  1  0.13610824  0.20504886  0.93012709  1
  C  C12  1  0.06382010  0.13796529  0.81000909  1
  C  C13  1  0.17712210  0.05954611  0.89172885  1
  H  H14  1  0.21857054  0.00265163  0.89351552  1
  O  O15  1  0.01692963  0.33874248  0.91262688  1
  H  H16  1  0.14147333  0.25239188  0.98215030  1
  C  C17  1  0.00964139  0.27984430  0.86043074  1
  H  H18  1  0.01829323  0.13844905  0.75738475  1
  O  O19  1  0.40710973  0.97433658  0.17127488  1
  C  C20  1  0.35104754  0.98057136  0.23220628  1
  C  C21  1  0.29457446  0.93147907  0.37098690  1
  C  C22  1  0.42577643  0.80346091  0.36867624  1
  C  C23  1  0.35379656  0.91817130  0.30335301  1
  C  C24  1  0.42228850  0.85600594  0.30102229  1
  C  C25  1  0.29883322  0.87015541  0.43489127  1
  C  C26  1  0.36319352  0.80521569  0.43557937  1
  H  H27  1  0.24793901  0.98503447  0.37059389  1
  O  O28  1  0.49299150  0.67974154  0.41837834  1
  H  H29  1  0.47641784  0.85393872  0.25009534  1
  H  H30  1  0.36128586  0.76216659  0.48978214  1
  Zn  Zn31  1  0.18318418  0.83746285  0.68941655  1
  Zn  Zn32  1  0.06633057  0.94066695  0.58212188  1
  O  O33  1  0.05709893  0.75887891  0.68474629  1
  O  O34  1  0.25765586  0.83625533  0.57386543  1
  C  C35  1  0.24089516  0.88200629  0.51116152  1
  O  O36  1  0.18536385  0.94112005  0.51048029  1
  C  C37  1  0.00192344  0.76904647  0.62773559  1
  O  O38  1  0.00150519  0.82863701  0.57560761  1
  O  O39  1  0.15993183  0.92737566  0.77468149  1
  C  C40  1  0.11231934  0.99537187  0.76136821  1
  C  C41  1  0.57004409  0.35263018  0.19187440  1
  C  C42  1  0.64688210  0.28371281  0.07079950  1
  C  C43  1  0.70536641  0.35343994  0.07309482  1
  C  C44  1  0.57890102  0.28760418  0.13027577  1
  C  C45  1  0.70041213  0.41970770  0.13062900  1
  C  C46  1  0.63218635  0.41672967  0.19163659  1
  H  H47  1  0.51199263  0.35440190  0.23386521  1
  H  H48  1  0.65000928  0.23064171  0.02078367  1
  O  O49  1  0.51697836  0.15569929  0.08123116  1
  H  H50  1  0.74574168  0.47597603  0.12304904  1
  C  C51  1  0.51069910  0.21782568  0.13196707  1
  O  O52  1  0.83632712  0.40870485  0.01546008  1
  C  C53  1  0.77540700  0.35738414  0.00743300  1
  O  O54  1  0.57295347  0.48449590  0.30446539  1
  C  C55  1  0.63166395  0.49010603  0.25032412  1
  Zn  Zn56  1  0.82463470  0.34599787  0.81466384  1
  O  O57  1  0.75593143  0.32289403  0.93626682  1
  Zn  Zn58  1  0.92961708  0.44666908  0.92432560  1
  O  O59  1  0.94303564  0.27354062  0.81124534  1
  O  O60  1  0.80558962  0.45839923  0.75936384  1
  O  O61  1  0.68413448  0.55177099  0.24581315  1
  Zn  Zn62  1  0.68498066  0.67255838  0.31478746  1
  Zn  Zn63  1  0.57038362  0.56571840  0.41127613  1
  O  O64  1  0.56403193  0.73696308  0.31408054  1
  O  O65  1  0.76513436  0.67489044  0.41840387  1
  C  C66  1  0.75018599  0.62595109  0.48166615  1
  O  O67  1  0.69235949  0.57037356  0.47660710  1
  C  C68  1  0.50001228  0.73948685  0.36577480  1
  C  C69  1  0.93161160  0.64239760  0.68863144  1
  C  C70  1  0.86509952  0.57845737  0.68626352  1
  C  C71  1  0.80966044  0.62844127  0.55573753  1
  C  C72  1  0.80321902  0.57136902  0.62011350  1
  C  C73  1  0.92971816  0.70280051  0.62649659  1
  C  C74  1  0.87115132  0.69827091  0.55966615  1
  H  H75  1  0.75372823  0.52127297  0.61863246  1
  H  H76  1  0.98325437  0.64293277  0.73731668  1
  H  H77  1  0.87556578  0.75034242  0.51188704  1
  O  O78  1  0.92334569  0.52278120  0.81581587  1
  C  C79  1  0.86223653  0.51968516  0.75881580  1
