# generated using pymatgen
data_ZnH6(C3N2)2
_symmetry_space_group_name_H-M   'P 1'
_cell_length_a   16.11671320
_cell_length_b   20.97820053
_cell_length_c   18.57237205
_cell_angle_alpha   90.00000000
_cell_angle_beta   90.00000000
_cell_angle_gamma   90.00000000
_symmetry_Int_Tables_number   1
_chemical_formula_structural   ZnH6(C3N2)2
_chemical_formula_sum   'Zn32 H192 C192 N128'
_cell_volume   6279.31233317
_cell_formula_units_Z   32
loop_
 _symmetry_equiv_pos_site_id
 _symmetry_equiv_pos_as_xyz
  1  'x, y, z'
loop_
 _atom_site_type_symbol
 _atom_site_label
 _atom_site_symmetry_multiplicity
 _atom_site_fract_x
 _atom_site_fract_y
 _atom_site_fract_z
 _atom_site_occupancy
  N  N0  1  0.21671172  0.45207345  0.12390197  1
  C  C1  1  0.41902691  0.08146731  0.23166439  1
  H  H2  1  0.10155228  0.43765494  0.05983147  1
  C  C3  1  0.19996905  0.22485883  0.15354294  1
  N  N4  1  0.12649619  0.37626034  0.15347766  1
  C  C5  1  0.07360226  0.07765909  0.14558143  1
  Zn  Zn6  1  0.24032132  0.09401185  0.21010433  1
  C  C7  1  0.39087254  0.00134157  0.00621949  1
  C  C8  1  0.14499622  0.42137900  0.10466454  1
  C  C9  1  0.19146203  0.37327285  0.19965334  1
  N  N10  1  0.26053013  0.23105799  0.04545957  1
  H  H11  1  0.29249700  0.12755639  0.04402577  1
  H  H12  1  0.06985268  0.13056638  0.13438208  1
  C  C13  1  0.04584554  0.23172028  0.03074795  1
  H  H14  1  0.20665728  0.31923364  0.08639196  1
  C  C15  1  0.24902419  0.42158401  0.18040288  1
  H  H16  1  0.05193249  0.46603884  0.20487202  1
  N  N17  1  0.35063896  0.05305444  0.20209345  1
  C  C18  1  0.45890764  0.00121213  0.16528605  1
  N  N19  1  0.13968100  0.04886459  0.17624493  1
  C  C20  1  0.22162809  0.26661286  0.09490333  1
  N  N21  1  0.22708364  0.16673182  0.13639760  1
  C  C22  1  0.26490147  0.16998495  0.07090319  1
  H  H23  1  0.30241486  0.43821300  0.20843774  1
  H  H24  1  0.17282835  0.23026127  0.20909509  1
  N  N25  1  0.01967009  0.03239798  0.11821121  1
  Zn  Zn26  1  0.02055317  0.32253912  0.15925593  1
  H  H27  1  0.49438590  0.48513715  0.24242224  1
  N  N28  1  0.00249508  0.24640060  0.08922421  1
  N  N29  1  0.48695792  0.04919189  0.20706355  1
  H  H30  1  0.10558907  0.25721405  0.01568112  1
  C  C31  1  0.01971923  0.17071491  0.00614239  1
  H  H32  1  0.41580230  0.47976680  0.11955543  1
  H  H33  1  0.02226392  0.18221160  0.24841483  1
  H  H34  1  0.19019816  0.33518882  0.24156121  1
  H  H35  1  0.40103548  0.38631453  0.00248636  1
  H  H36  1  0.35466795  0.44321167  0.44738342  1
  N  N37  1  0.24023275  0.14273585  0.30563028  1
  H  H38  1  0.48353770  0.13289977  0.35056729  1
  H  H39  1  0.16934411  0.08034914  0.36966716  1
  H  H40  1  0.43212470  0.01567632  0.31705641  1
  C  C41  1  0.49864919  0.38915325  0.34139100  1
  N  N42  1  0.21491022  0.35274683  0.49795240  1
  H  H43  1  0.44782127  0.28384020  0.32837396  1
  C  C44  1  0.26858082  0.20343805  0.31413012  1
  C  C45  1  0.44155094  0.33656011  0.34715142  1
  C  C46  1  0.21110270  0.17847219  0.41793143  1
  H  H47  1  0.29688460  0.23329687  0.27008923  1
  Zn  Zn48  1  0.28817417  0.30381479  0.43154427  1
  C  C49  1  0.20256029  0.12692312  0.36710310  1
  N  N50  1  0.25503155  0.22218051  0.38272363  1
  N  N51  1  0.46917252  0.43519186  0.38403820  1
  C  C52  1  0.39553633  0.41552674  0.41251135  1
  N  N53  1  0.38281714  0.35211758  0.39342168  1
  H  H54  1  0.41474275  0.12203645  0.26797640  1
  H  H55  1  0.09516280  0.35349220  0.43477439  1
  H  H56  1  0.19077095  0.17868164  0.47583004  1
  C  C57  1  0.13253536  0.36357232  0.48510853  1
  H  H58  1  0.05395864  0.06920706  0.29691972  1
  C  C59  1  0.03021429  0.03551551  0.33856064  1
  H  H60  1  0.11758610  0.02571425  0.47817593  1
  N  N61  1  0.02312520  0.17460964  0.48881138  1
  H  H62  1  0.03570898  0.27124139  0.45119180  1
  C  C63  1  0.05465345  0.23316086  0.48911058  1
  C  C64  1  0.15545425  0.40010260  0.59295617  1
  C  C65  1  0.33205744  0.24312029  0.65183995  1
  C  C66  1  0.39200926  0.45652113  0.59809514  1
  H  H67  1  0.40976232  0.45772494  0.54227074  1
  H  H68  1  0.15850677  0.26968650  0.56484992  1
  H  H69  1  0.29466235  0.37873760  0.58522027  1
  H  H70  1  0.03678571  0.08952982  0.55178752  1
  N  N71  1  0.32418520  0.47138188  0.70159375  1
  Zn  Zn72  1  0.18314220  0.14849352  0.66491832  1
  C  C73  1  0.16208487  0.01166389  0.71580131  1
  C  C74  1  0.40969921  0.20969418  0.56006669  1
  C  C75  1  0.11075281  0.23312808  0.54862700  1
  N  N76  1  0.40748759  0.40840587  0.64161065  1
  H  H77  1  0.22978246  0.00321650  0.70695018  1
  N  N78  1  0.29849669  0.18834667  0.62902073  1
  H  H79  1  0.30791563  0.27548243  0.69174129  1
  C  C80  1  0.37324007  0.41939148  0.70945419  1
  C  C81  1  0.04471120  0.06354381  0.72098159  1
  C  C82  1  0.34699019  0.16368355  0.57710005  1
  Zn  Zn83  1  0.47191326  0.33246629  0.61484267  1
  N  N84  1  0.11040755  0.17596132  0.58019786  1
  N  N85  1  0.40134091  0.25364177  0.61116448  1
  C  C86  1  0.05605333  0.13886715  0.54292745  1
  N  N87  1  0.09585750  0.38651736  0.54523170  1
  N  N88  1  0.12907705  0.06780983  0.70567399  1
  H  H89  1  0.14013191  0.42056416  0.64537802  1
  H  H90  1  0.33170868  0.11792955  0.54731531  1
  H  H91  1  0.42718249  0.13504378  0.70599950  1
  H  H92  1  0.45639438  0.20780858  0.51687983  1
  C  C93  1  0.23162684  0.37751035  0.56352829  1
  N  N94  1  0.02741812  0.00275354  0.73613171  1
  C  C95  1  0.33447794  0.49780718  0.63677736  1
  N  N96  1  0.49524636  0.04939168  0.72488076  1
  C  C97  1  0.47717476  0.10158602  0.68687703  1
  H  H98  1  0.14782878  0.37310959  0.74399146  1
  N  N99  1  0.21712852  0.24490395  0.86114205  1
  C  C100  1  0.36714271  0.14012237  0.88728282  1
  C  C101  1  0.24860163  0.21356363  0.80220573  1
  C  C102  1  0.10732690  0.40983617  0.76733138  1
  C  C103  1  0.35606739  0.39718481  0.95946500  1
  C  C104  1  0.46070219  0.19143238  0.94946404  1
  H  H105  1  0.21973320  0.35722319  0.83738908  1
  N  N106  1  0.30502808  0.35440519  0.93094976  1
  Zn  Zn107  1  0.29288784  0.26361897  0.95139150  1
  H  H108  1  0.30713195  0.12814085  0.86296792  1
  C  C109  1  0.34830036  0.45162051  0.91466692  1
  N  N110  1  0.43835949  0.10577383  0.87955725  1
  C  C111  1  0.26311167  0.38146953  0.87326183  1
  C  C112  1  0.13749675  0.25315061  0.86125283  1
  N  N113  1  0.18263145  0.20141602  0.76133514  1
  H  H114  1  0.31365454  0.20192672  0.79718012  1
  N  N115  1  0.01013314  0.45687457  0.83477543  1
  N  N116  1  0.28909492  0.44254398  0.86454992  1
  N  N117  1  0.38262933  0.19301048  0.92561827  1
  H  H118  1  0.10034577  0.27491691  0.90424388  1
  Zn  Zn119  1  0.45611964  0.02034704  0.82521326  1
  H  H120  1  0.13943278  0.47914734  0.94363958  1
  C  C121  1  0.11509011  0.22503859  0.79358794  1
  C  C122  1  0.02978777  0.40133199  0.80052392  1
  H  H123  1  0.04574107  0.13705648  0.96598515  1
  H  H124  1  0.38118458  0.38869045  0.75886018  1
  N  N125  1  0.13622539  0.46859288  0.78461977  1
  H  H126  1  0.38244377  0.49773299  0.92307726  1
  H  H127  1  0.05407760  0.21558526  0.76605557  1
  C  C128  1  0.07589594  0.49734714  0.82340332  1
  H  H129  1  0.49013681  0.22894847  0.98144562  1
  H  H130  1  0.39871430  0.05104143  0.98455402  1
  C  C131  1  0.49649607  0.13588259  0.91818972  1
  N  N132  1  0.34085104  0.90479635  0.03791897  1
  H  H133  1  0.06792166  0.59949639  0.12133965  1
  Zn  Zn134  1  0.24307532  0.54009206  0.07358000  1
  H  H135  1  0.32445683  0.97327701  0.13414208  1
  C  C136  1  0.06472815  0.56769369  0.07315544  1
  N  N137  1  0.23916140  0.60280128  0.15614631  1
  C  C138  1  0.24194682  0.69066677  0.22240087  1
  C  C139  1  0.42654975  0.51640539  0.07535206  1
  C  C140  1  0.31266406  0.86330093  0.21030641  1
  Zn  Zn141  1  0.26749722  0.82457612  0.05813081  1
  H  H142  1  0.11251835  0.70811192  0.05141551  1
  H  H143  1  0.37930114  0.87329498  0.19298814  1
  N  N144  1  0.25233341  0.84155795  0.16756443  1
  H  H145  1  0.24688158  0.73898302  0.24209449  1
  H  H146  1  0.12350153  0.81870117  0.18596274  1
  C  C147  1  0.41378415  0.73617458  0.06895862  1
  C  C148  1  0.31990658  0.96319227  0.01213170  1
  C  C149  1  0.42559772  0.90475372  0.04029378  1
  C  C150  1  0.09733306  0.75572970  0.03065138  1
  H  H151  1  0.28145157  0.68585709  0.10175450  1
  N  N152  1  0.14881687  0.80644288  0.02333179  1
  C  C153  1  0.18368950  0.83424465  0.20954959  1
  C  C154  1  0.26160268  0.66249643  0.15175058  1
  N  N155  1  0.13066163  0.54220752  0.03997839  1
  N  N156  1  0.36269300  0.55084710  0.04635244  1
  H  H157  1  0.17815434  0.95307925  0.18744439  1
  H  H158  1  0.39366586  0.72564797  0.12650312  1
  H  H159  1  0.03268026  0.93166209  0.10523304  1
  C  C160  1  0.21501356  0.58888414  0.22391237  1
  C  C161  1  0.05584570  0.97595349  0.12523939  1
  C  C162  1  0.49004284  0.72372435  0.03188867  1
  C  C163  1  0.12603559  0.98593525  0.17038418  1
  N  N164  1  0.36587238  0.77271102  0.02601104  1
  N  N165  1  0.45612143  0.96316948  0.02254322  1
  H  H166  1  0.45772007  0.86152388  0.05866346  1
  N  N167  1  0.02003147  0.76889975  0.00362356  1
  C  C168  1  0.37008900  0.99974005  0.16573611  1
  H  H169  1  0.25598445  0.97759669  0.00286347  1
  N  N170  1  0.41701097  0.56781484  0.42663427  1
  N  N171  1  0.40659555  0.80637050  0.41308567  1
  C  C172  1  0.21640410  0.77626452  0.44946635  1
  C  C173  1  0.20820260  0.84254684  0.28257788  1
  Zn  Zn174  1  0.19730389  0.65089385  0.36947983  1
  C  C175  1  0.44954625  0.80509772  0.47715792  1
  N  N176  1  0.07581603  0.61493260  0.37759091  1
  H  H177  1  0.28540046  0.76804713  0.45579788  1
  C  C178  1  0.48136676  0.71872827  0.41907671  1
  C  C179  1  0.35309321  0.58257266  0.37940796  1
  C  C180  1  0.48326433  0.98333047  0.33429380  1
  C  C181  1  0.03810960  0.59638173  0.43623089  1
  C  C182  1  0.03867073  0.96794403  0.34483713  1
  H  H183  1  0.35388037  0.56876354  0.31966000  1
  N  N184  1  0.16687469  0.73350385  0.41931661  1
  N  N185  1  0.47095321  0.92392205  0.36378126  1
  C  C186  1  0.42240645  0.75323512  0.37667695  1
  Zn  Zn187  1  0.35255688  0.88401349  0.36927760  1
  H  H188  1  0.39864047  0.74927575  0.31994358  1
  C  C189  1  0.08885480  0.75593150  0.41631565  1
  C  C190  1  0.21332278  0.97180050  0.40813964  1
  N  N191  1  0.29614334  0.61573626  0.41774776  1
  H  H192  1  0.03483019  0.72720775  0.40193191  1
  H  H193  1  0.17875096  0.83596073  0.33787106  1
  N  N194  1  0.08778413  0.81810706  0.44255741  1
  C  C195  1  0.02077644  0.62103976  0.32156009  1
  C  C196  1  0.17580089  0.99898567  0.47103087  1
  C  C197  1  0.16490270  0.83290082  0.46326655  1
  N  N198  1  0.49907909  0.75426437  0.47726023  1
  N  N199  1  0.22234787  0.64239745  0.26549377  1
  N  N200  1  0.28257014  0.94269579  0.42954666  1
  H  H201  1  0.03834944  0.64207007  0.26871796  1
  N  N202  1  0.28523650  0.86503815  0.28044397  1
  H  H203  1  0.07535912  0.93260191  0.31700673  1
  H  H204  1  0.06495581  0.59618403  0.49005934  1
  C  C205  1  0.32077945  0.62361563  0.48558564  1
  C  C206  1  0.29722130  0.95904194  0.49897801  1
  H  H207  1  0.18950039  0.97326004  0.35056839  1
  C  C208  1  0.39998216  0.59025148  0.49063796  1
  H  H209  1  0.18162636  0.87765311  0.48741787  1
  H  H210  1  0.19227781  0.54246479  0.25004639  1
  H  H211  1  0.29825567  0.63374151  0.69101405  1
  C  C212  1  0.09712390  0.96779901  0.73707188  1
  H  H213  1  0.30087367  0.54162755  0.62038309  1
  C  C214  1  0.14074216  0.79593220  0.63062604  1
  N  N215  1  0.05044953  0.72422417  0.66728382  1
  H  H216  1  0.17367166  0.84129896  0.60610320  1
  H  H217  1  0.41198961  0.89983639  0.72341518  1
  N  N218  1  0.17492241  0.76492135  0.68661191  1
  H  H219  1  0.28727390  0.65577447  0.52466341  1
  Zn  Zn220  1  0.28874464  0.78302915  0.72841770  1
  H  H221  1  0.41554449  0.72528777  0.58957004  1
  N  N222  1  0.41365616  0.77876829  0.69328254  1
  C  C223  1  0.12059493  0.71934870  0.70806998  1
  C  C224  1  0.44591155  0.75250634  0.63279848  1
  C  C225  1  0.05880641  0.77302717  0.62039336  1
  C  C226  1  0.47280038  0.81074843  0.72817451  1
  H  H227  1  0.44632972  0.58851309  0.53562078  1
  N  N228  1  0.23127350  0.99368906  0.52347265  1
  H  H229  1  0.02066932  0.94783076  0.61124966  1
  H  H230  1  0.00594577  0.79213212  0.58891686  1
  H  H231  1  0.35143569  0.94476103  0.52882853  1
  H  H232  1  0.03900664  0.54029829  0.63320418  1
  H  H233  1  0.43004055  0.56608303  0.73559335  1
  H  H234  1  0.09335644  0.91569929  0.74130382  1
  C  C235  1  0.28483497  0.63944474  0.74860545  1
  H  H236  1  0.46175896  0.84485852  0.51539120  1
  H  H237  1  0.42099963  0.68358320  0.80710983  1
  H  H238  1  0.28702515  0.97968526  0.89764508  1
  C  C239  1  0.39900009  0.59194611  0.99895793  1
  C  C240  1  0.40927359  0.78080212  0.96376017  1
  H  H241  1  0.45998436  0.83263115  0.78067853  1
  H  H242  1  0.46487130  0.87606600  0.89099989  1
  H  H243  1  0.19931021  0.86990991  0.85760230  1
  N  N244  1  0.29400558  0.86655525  0.77523577  1
  C  C245  1  0.48501289  0.57697717  0.99352741  1
  H  H246  1  0.23469109  0.59775442  0.91411755  1
  C  C247  1  0.25758136  0.69000019  0.84914002  1
  N  N248  1  0.26686851  0.59470549  0.79985707  1
  C  C249  1  0.48239042  0.59512710  0.75962553  1
  C  C250  1  0.25027254  0.88988783  0.82982304  1
  N  N251  1  0.48405601  0.75001999  0.96845341  1
  C  C252  1  0.47782253  0.65514465  0.79819614  1
  C  C253  1  0.25191162  0.62199422  0.86180842  1
  C  C254  1  0.29240697  0.94677260  0.85125403  1
  N  N255  1  0.27406840  0.69696021  0.77999136  1
  H  H256  1  0.24534749  0.72995798  0.88391633  1
  H  H257  1  0.07836080  0.54356279  0.85187296  1
  H  H258  1  0.39092257  0.81322838  0.91726093  1
  N  N259  1  0.35951636  0.95512646  0.81032112  1
  C  C260  1  0.10009154  0.50998005  0.98161689  1
  N  N261  1  0.01464276  0.50854019  0.98449338  1
  H  H262  1  0.36257141  0.62882956  0.96950137  1
  C  C263  1  0.02144105  0.83074787  0.98504649  1
  Zn  Zn264  1  0.26039023  0.50059770  0.78034101  1
  C  C265  1  0.10363492  0.85455758  0.99433724  1
  H  H266  1  0.12518715  0.90319102  0.98604411  1
  C  C267  1  0.35787246  0.90559657  0.75965973  1
  H  H268  1  0.12681328  0.68702282  0.75367747  1
  C  C269  1  0.85552073  0.02598988  0.20534170  1
  C  C270  1  0.87341071  0.41053170  0.16408110  1
  N  N271  1  0.83123391  0.04794651  0.14184460  1
  C  C272  1  0.94907008  0.19897454  0.10289687  1
  C  C273  1  0.74914229  0.06511732  0.14558639  1
  H  H274  1  0.57881133  0.35168075  0.08612527  1
  N  N275  1  0.62815673  0.42621984  0.15246785  1
  C  C276  1  0.62156413  0.32679283  0.19952894  1
  C  C277  1  0.77245123  0.47248950  0.00476081  1
  H  H278  1  0.90664828  0.19281917  0.15066354  1
  N  N279  1  0.84721336  0.46868683  0.18727906  1
  N  N280  1  0.96278345  0.15164462  0.05385244  1
  Zn  Zn281  1  0.91571956  0.05763994  0.06054596  1
  C  C282  1  0.66226412  0.42656349  0.21696333  1
  C  C283  1  0.60816142  0.36420074  0.13780170  1
  N  N284  1  0.60762354  0.07093095  0.02741857  1
  H  H285  1  0.61037158  0.27629046  0.20887396  1
  N  N286  1  0.65695276  0.36667605  0.24778224  1
  H  H287  1  0.78174306  0.43280508  0.04136299  1
  H  H288  1  0.53031735  0.11857762  0.10603363  1
  H  H289  1  0.71763836  0.07994867  0.09818837  1
  N  N290  1  0.95516696  0.40487397  0.17288481  1
  C  C291  1  0.98565805  0.45970015  0.19623169  1
  H  H292  1  0.82989471  0.37305617  0.14699598  1
  N  N293  1  0.72331893  0.05634062  0.21356888  1
  C  C294  1  0.57890394  0.12200742  0.06146316  1
  N  N295  1  0.62329292  0.17624020  0.04226655  1
  H  H296  1  0.92241734  0.01804952  0.21404898  1
  H  H297  1  0.68123583  0.47125650  0.24119826  1
  N  N298  1  0.62345401  0.24500104  0.33770557  1
  H  H299  1  0.55860020  0.39369472  0.31358476  1
  H  H300  1  0.51424070  0.26013838  0.40038222  1
  H  H301  1  0.82606953  0.43736970  0.29436384  1
  C  C302  1  0.53403360  0.16381779  0.34013585  1
  N  N303  1  0.64781700  0.32351976  0.45809497  1
  C  C304  1  0.78670717  0.03430736  0.25378250  1
  H  H305  1  0.63362462  0.16390462  0.46441280  1
  N  N306  1  0.88664531  0.41408816  0.46452310  1
  Zn  Zn307  1  0.94563947  0.14835592  0.40976438  1
  C  C308  1  0.81727873  0.37774184  0.45546929  1
  C  C309  1  0.55279738  0.22799978  0.36636350  1
  N  N310  1  0.78447683  0.38566668  0.38886026  1
  N  N311  1  0.83149473  0.13552681  0.44075627  1
  N  N312  1  0.59700284  0.14770430  0.29820367  1
  N  N313  1  0.98588806  0.05920755  0.39305652  1
  C  C314  1  0.83573485  0.42545223  0.35217351  1
  C  C315  1  0.57776890  0.34789473  0.48599137  1
  C  C316  1  0.89964966  0.44241099  0.39972291  1
  Zn  Zn317  1  0.69139185  0.33162402  0.34875288  1
  C  C318  1  0.92764545  0.27961419  0.36058653  1
  H  H319  1  0.89460362  0.28928184  0.41101586  1
  N  N320  1  0.95714741  0.22191556  0.34401468  1
  C  C321  1  0.65200353  0.19687080  0.29552787  1
  N  N322  1  0.72058891  0.09344943  0.49223601  1
  H  H323  1  0.95225558  0.47343042  0.38290222  1
  C  C324  1  0.69807606  0.14700176  0.45906596  1
  H  H325  1  0.78335022  0.02206910  0.31132497  1
  H  H326  1  0.69137130  0.45591310  0.44878427  1
  H  H327  1  0.53862899  0.38165753  0.45464931  1
  C  C328  1  0.96876399  0.00834704  0.43759532  1
  H  H329  1  0.77303949  0.21212235  0.38284227  1
  C  C330  1  0.95626516  0.32188127  0.30381782  1
  C  C331  1  0.76872393  0.17239289  0.41997078  1
  C  C332  1  0.80372709  0.08654370  0.48244641  1
  H  H333  1  0.73350199  0.25505410  0.49662467  1
  H  H334  1  0.79066605  0.34277075  0.49485755  1
  C  C335  1  0.99332892  0.22328159  0.27868442  1
  H  H336  1  0.95255736  0.37554014  0.29500123  1
  H  H337  1  0.93538075  0.00901939  0.48919605  1
  Zn  Zn338  1  0.60825162  0.06545298  0.25226134  1
  N  N339  1  0.99308922  0.28454422  0.25593645  1
  C  C340  1  0.65900746  0.47671133  0.49501520  1
  H  H341  1  0.71394509  0.19984130  0.26453144  1
  H  H342  1  0.99676320  0.10234356  0.72063028  1
  H  H343  1  0.62752756  0.25115433  0.62096919  1
  H  H344  1  0.73039253  0.00351719  0.66530724  1
  C  C345  1  0.52348730  0.10601145  0.62097812  1
  C  C346  1  0.54883150  0.01686438  0.68120884  1
  N  N347  1  0.56109447  0.31780297  0.55127294  1
  Zn  Zn348  1  0.64404972  0.03371723  0.54406309  1
  N  N349  1  0.83202874  0.26419546  0.67231321  1
  N  N350  1  0.92783368  0.49534232  0.58179472  1
  H  H351  1  0.52033049  0.14818431  0.58684831  1
  Zn  Zn352  1  0.96774346  0.40477942  0.55590062  1
  N  N353  1  0.56640990  0.05110571  0.62046572  1
  C  C354  1  0.62289061  0.27725053  0.56929425  1
  C  C355  1  0.85559931  0.22799157  0.61877595  1
  H  H356  1  0.84158022  0.17818220  0.61014020  1
  H  H357  1  0.72775305  0.44265394  0.59687320  1
  C  C358  1  0.67910953  0.46984091  0.56969252  1
  C  C359  1  0.90070467  0.26953401  0.57063853  1
  C  C360  1  0.86471562  0.32396667  0.66399374  1
  C  C361  1  0.71428858  0.10639996  0.70509273  1
  H  H362  1  0.85251207  0.36441357  0.70169442  1
  N  N363  1  0.90581900  0.32667887  0.59993799  1
  H  H364  1  0.69922851  0.37635704  0.66608922  1
  C  C365  1  0.67687593  0.36839495  0.72475658  1
  C  C366  1  0.67728832  0.28276035  0.50868394  1
  C  C367  1  0.75065268  0.04479160  0.69710601  1
  N  N368  1  0.76456491  0.14110994  0.74551474  1
  H  H369  1  0.65751650  0.12484355  0.68154331  1
  N  N370  1  0.82005853  0.04399256  0.73542556  1
  H  H371  1  0.81207028  0.48524940  0.53290708  1
  H  H372  1  0.84281094  0.04637026  0.50254740  1
  H  H373  1  0.92909805  0.25840929  0.51699298  1
  C  C374  1  0.67058380  0.09037737  0.98168269  1
  H  H375  1  0.70271396  0.05809104  0.94671025  1
  H  H376  1  0.60690089  0.43483275  0.86878861  1
  C  C377  1  0.83781997  0.35699397  0.84723864  1
  H  H378  1  0.88874068  0.12266252  0.79116011  1
  C  C379  1  0.63225461  0.40028162  0.82854785  1
  C  C380  1  0.66614901  0.33941170  0.83848565  1
  C  C381  1  0.92970131  0.32219817  0.92532160  1
  C  C382  1  0.89468655  0.26974662  0.88451061  1
  C  C383  1  0.82914134  0.10297646  0.76664308  1
  N  N384  1  0.84069763  0.29189340  0.83898459  1
  N  N385  1  0.64171524  0.41810719  0.75763391  1
  H  H386  1  0.55840522  0.11697940  0.92494827  1
  H  H387  1  0.79471847  0.39003435  0.81875966  1
  N  N388  1  0.89498273  0.37341330  0.89723416  1
  Zn  Zn389  1  0.92748017  0.46254100  0.91253412  1
  H  H390  1  0.90644597  0.21593656  0.88794401  1
  Zn  Zn391  1  0.76311354  0.23846822  0.75694075  1
  H  H392  1  0.67235813  0.30993994  0.88696719  1
  N  N393  1  0.68976420  0.31887965  0.77299039  1
  H  H394  1  0.97130770  0.04803162  0.88417020  1
  H  H395  1  0.71855747  0.18945827  0.96096481  1
  C  C396  1  0.92580457  0.00758254  0.89999041  1
  N  N397  1  0.81882748  0.49188407  0.94657336  1
  H  H398  1  0.98016559  0.32634398  0.96457639  1
  H  H399  1  0.99188995  0.35877709  0.81341726  1
  C  C400  1  0.68069642  0.15732181  0.99318259  1
  C  C401  1  0.62268777  0.60127354  0.22225920  1
  C  C402  1  0.99153037  0.54092991  0.04120855  1
  H  H403  1  0.54541148  0.69501374  0.05138595  1
  H  H404  1  0.91087690  0.72886294  0.18114553  1
  Zn  Zn405  1  0.57439263  0.98694574  0.03752260  1
  C  C406  1  0.87797633  0.68572362  0.16031139  1
  H  H407  1  0.90341897  0.55239820  0.22399057  1
  C  C408  1  0.82565803  0.61540391  0.08673291  1
  C  C409  1  0.64643196  0.91464802  0.16565119  1
  H  H410  1  0.76396559  0.56041292  0.17628334  1
  N  N411  1  0.58161403  0.55380033  0.19156158  1
  H  H412  1  0.64892501  0.76052084  0.15451331  1
  H  H413  1  0.81464013  0.58665384  0.03586654  1
  C  C414  1  0.80113134  0.59952078  0.15837194  1
  N  N415  1  0.87006249  0.66938268  0.09011157  1
  N  N416  1  0.61103488  0.90793866  0.10032409  1
  H  H417  1  0.80754614  0.92733164  0.00683295  1
  C  C418  1  0.60566245  0.84614038  0.08536405  1
  N  N419  1  0.66742152  0.85470001  0.19191205  1
  N  N420  1  0.70427647  0.50787876  0.00838171  1
  C  C421  1  0.64226008  0.81222264  0.14316351  1
  H  H422  1  0.92604951  0.54130756  0.05679793  1
  N  N423  1  0.83910104  0.64044649  0.20193889  1
  H  H424  1  0.66253540  0.95905448  0.19372633  1
  H  H425  1  0.67401118  0.62777370  0.19097920  1
  H  H426  1  0.84226425  0.83727714  0.02531343  1
  H  H427  1  0.58555218  0.82719026  0.03179057  1
  Zn  Zn428  1  0.61175752  0.50703347  0.08736683  1
  H  H429  1  0.50110789  0.96410813  0.14056837  1
  N  N430  1  0.50013492  0.53602879  0.04714478  1
  C  C431  1  0.91553717  0.50129897  0.20571382  1
  C  C432  1  0.53057883  0.53016053  0.24332739  1
  H  H433  1  0.81456146  0.78830132  0.23216191  1
  Zn  Zn434  1  0.92379432  0.70964268  0.00088946  1
  Zn  Zn435  1  0.51746736  0.52082377  0.39988000  1
  N  N436  1  0.86150599  0.73915992  0.32398462  1
  H  H437  1  0.55378521  0.84593707  0.39053730  1
  C  C438  1  0.60377976  0.93913559  0.34191733  1
  H  H439  1  0.67069741  0.93045120  0.32704005  1
  C  C440  1  0.61024608  0.59963441  0.29907157  1
  C  C441  1  0.68386708  0.62173068  0.49457709  1
  N  N442  1  0.54956883  0.55793206  0.30853130  1
  Zn  Zn443  1  0.99026953  0.87239774  0.44796091  1
  N  N444  1  0.91983622  0.82038435  0.37993814  1
  Zn  Zn445  1  0.83784051  0.64631513  0.30761990  1
  C  C446  1  0.71042087  0.69652409  0.41617038  1
  C  C447  1  0.54474678  0.89655621  0.37244926  1
  C  C448  1  0.95277283  0.58904591  0.41530583  1
  N  N449  1  0.94383963  0.60849265  0.34678502  1
  H  H450  1  0.76964732  0.54915330  0.43374275  1
  H  H451  1  0.90090185  0.58603006  0.45216849  1
  C  C452  1  0.73832243  0.59725519  0.44029910  1
  H  H453  1  0.91183005  0.72624385  0.43452129  1
  N  N454  1  0.75469922  0.64447903  0.39549811  1
  H  H455  1  0.64111905  0.62386093  0.34270672  1
  H  H456  1  0.90211307  0.88798098  0.29655807  1
  C  C457  1  0.88885667  0.84098512  0.31730032  1
  C  C458  1  0.89776773  0.75878930  0.38743506  1
  H  H459  1  0.74300907  0.94631622  0.42251344  1
  H  H460  1  0.71280990  0.74340598  0.38647478  1
  C  C461  1  0.84872244  0.78881829  0.28151709  1
  N  N462  1  0.66809641  0.68360251  0.47766882  1
  C  C463  1  0.71435263  0.91825061  0.46656398  1
  H  H464  1  0.72956617  0.81472752  0.42739373  1
  C  C465  1  0.70639494  0.85040246  0.46724126  1
  N  N466  1  0.56398399  0.98990084  0.31686856  1
  N  N467  1  0.99602760  0.95473270  0.40385852  1
  H  H468  1  0.51040784  0.67477141  0.40422234  1
  N  N469  1  0.58654805  0.50817438  0.48709712  1
  C  C470  1  0.97361606  0.54289338  0.61396283  1
  C  C471  1  0.75840004  0.68160940  0.71677765  1
  Zn  Zn472  1  0.94161957  0.67691773  0.67448063  1
  N  N473  1  0.69541932  0.71648343  0.61720880  1
  N  N474  1  0.67454726  0.94195256  0.52409751  1
  H  H475  1  0.83822905  0.82154786  0.53032922  1
  C  C476  1  0.85905173  0.86604814  0.64447548  1
  C  C477  1  0.67946688  0.69250034  0.68293133  1
  N  N478  1  0.52546682  0.77259239  0.62438869  1
  C  C479  1  0.97047189  0.91447213  0.60569050  1
  C  C480  1  0.56546719  0.52713411  0.55444492  1
  N  N481  1  0.91420724  0.90989321  0.66094272  1
  H  H482  1  0.59752124  0.90016081  0.60732801  1
  C  C483  1  0.85475263  0.51558354  0.56208049  1
  H  H484  1  0.57744529  0.96704481  0.69899575  1
  H  H485  1  0.60438052  0.83536805  0.69139761  1
  C  C486  1  0.77848179  0.72137665  0.60763155  1
  N  N487  1  0.81428747  0.69662170  0.66654467  1
  Zn  Zn488  1  0.60696941  0.74717537  0.54252519  1
  H  H489  1  0.81219132  0.73251790  0.55790471  1
  H  H490  1  0.81001512  0.85402854  0.68173416  1
  C  C491  1  0.84985152  0.58002019  0.58893969  1
  N  N492  1  0.92335704  0.59336369  0.62008369  1
  H  H493  1  0.61539972  0.68767073  0.70111694  1
  C  C494  1  0.64015652  0.89345743  0.55969580  1
  N  N495  1  0.94718636  0.87649545  0.54970136  1
  C  C496  1  0.54387058  0.81007474  0.68054640  1
  C  C497  1  0.87636834  0.84719023  0.57191332  1
  H  H498  1  0.79577578  0.61329331  0.58598871  1
  H  H499  1  0.66305772  0.60189353  0.54607560  1
  N  N500  1  0.65911127  0.83892665  0.52358315  1
  H  H501  1  0.50817821  0.55127812  0.57501413  1
  Zn  Zn502  1  0.60766338  0.50059882  0.71466567  1
  N  N503  1  0.61925729  0.50104459  0.60378674  1
  Zn  Zn504  1  0.90929343  0.96983018  0.74604899  1
  C  C505  1  0.71629032  0.81894956  0.96876028  1
  H  H506  1  0.80129349  0.55867312  0.85794730  1
  C  C507  1  0.75271133  0.72335404  0.93790867  1
  N  N508  1  0.55128346  0.67067520  0.82620743  1
  C  C509  1  0.94372217  0.70198778  0.83705352  1
  H  H510  1  0.74669275  0.67197748  0.91733544  1
  N  N511  1  0.93753829  0.66939373  0.89985526  1
  C  C512  1  0.60337996  0.62514656  0.80133897  1
  H  H513  1  0.81206398  0.88119519  0.86495763  1
  N  N514  1  0.94179673  0.66173109  0.78077663  1
  N  N515  1  0.89622509  0.96294441  0.85516870  1
  H  H516  1  0.66998549  0.62171687  0.81686433  1
  C  C517  1  0.65109724  0.88069684  0.82894805  1
  C  C518  1  0.84600679  0.94592413  0.96262924  1
  C  C519  1  0.70706579  0.55071890  0.95374635  1
  H  H520  1  0.94788161  0.75598276  0.83062996  1
  Zn  Zn521  1  0.57400965  0.75318365  0.88905900  1
  H  H522  1  0.65401857  0.58442953  0.94731717  1
  C  C523  1  0.62378080  0.94282009  0.81301395  1
  N  N524  1  0.69041862  0.76783903  0.93753939  1
  N  N525  1  0.56086003  0.57974707  0.76075473  1
  H  H526  1  0.71171185  0.85710001  0.82705014  1
  C  C527  1  0.52436481  0.89076742  0.86592354  1
  C  C528  1  0.77443882  0.53412147  0.90747763  1
  N  N529  1  0.58731766  0.84925468  0.85992985  1
  C  C530  1  0.84750193  0.92231170  0.88944380  1
  H  H531  1  0.53672782  0.59756593  0.95879569  1
  N  N532  1  0.82043079  0.74780844  0.97132811  1
  N  N533  1  0.54510169  0.94909531  0.83703843  1
  H  H534  1  0.96983440  0.85510892  0.95639661  1
  H  H535  1  0.65441034  0.97986068  0.77949271  1
  H  H536  1  0.77198331  0.66616007  0.77120664  1
  H  H537  1  0.68067495  0.86658502  0.97382813  1
  C  C538  1  0.93982103  0.60049711  0.80588850  1
  C  C539  1  0.80053406  0.80664902  0.99315388  1
  N  N540  1  0.89597770  0.99560176  0.96776433  1
  C  C541  1  0.93404309  0.60734145  0.88234208  1
  H  H542  1  0.93437016  0.55896103  0.77212802  1
  H  H543  1  0.92866458  0.57090102  0.92637773  1
