# generated using pymatgen
data_ZnH6(C3N2)2
_symmetry_space_group_name_H-M   'P 1'
_cell_length_a   15.68273050
_cell_length_b   18.42205235
_cell_length_c   22.11795304
_cell_angle_alpha   90.00000000
_cell_angle_beta   90.00000000
_cell_angle_gamma   90.00000000
_symmetry_Int_Tables_number   1
_chemical_formula_structural   ZnH6(C3N2)2
_chemical_formula_sum   'Zn32 H192 C192 N128'
_cell_volume   6390.05539825
_cell_formula_units_Z   32
loop_
 _symmetry_equiv_pos_site_id
 _symmetry_equiv_pos_as_xyz
  1  'x, y, z'
loop_
 _atom_site_type_symbol
 _atom_site_label
 _atom_site_symmetry_multiplicity
 _atom_site_fract_x
 _atom_site_fract_y
 _atom_site_fract_z
 _atom_site_occupancy
  Zn  Zn0  1  0.20528389  0.14734555  0.24004864  1
  H  H1  1  0.19424184  0.31313284  0.20813355  1
  C  C2  1  0.05111141  0.32057972  0.18155891  1
  Zn  Zn3  1  0.03828395  0.03029873  0.06023946  1
  H  H4  1  0.03029294  0.49649431  0.10638279  1
  C  C5  1  0.39732823  0.30341895  0.11524448  1
  C  C6  1  0.13009498  0.29054260  0.20187641  1
  C  C7  1  0.20806475  0.07297359  0.01056538  1
  H  H8  1  0.28653931  0.10384656  0.10885809  1
  C  C9  1  0.09270701  0.46336030  0.09881086  1
  C  C10  1  0.48677185  0.39120259  0.09271039  1
  N  N11  1  0.14922902  0.08773576  0.05476814  1
  N  N12  1  0.46279414  0.34360455  0.13453425  1
  H  H13  1  0.28748517  0.41882556  0.13399879  1
  N  N14  1  0.15894268  0.46750567  0.13498919  1
  C  C15  1  0.39642562  0.15618713  0.22706951  1
  H  H16  1  0.36730749  0.25592517  0.13924374  1
  N  N17  1  0.11594798  0.21962049  0.21192625  1
  N  N18  1  0.19004827  0.38293030  0.06861235  1
  C  C19  1  0.33835109  0.12229337  0.13989787  1
  N  N20  1  0.32455735  0.14609905  0.19727266  1
  C  C21  1  0.46038011  0.13148235  0.18543606  1
  C  C22  1  0.22204126  0.42203562  0.11573861  1
  C  C23  1  0.16365892  0.15914567  0.06944284  1
  C  C24  1  0.11208511  0.40279476  0.05774345  1
  N  N25  1  0.36816083  0.33335488  0.06242481  1
  N  N26  1  0.19516799  0.03409830  0.23368307  1
  N  N27  1  0.42249749  0.11228553  0.13317820  1
  Zn  Zn28  1  0.24987508  0.30015811  0.02354327  1
  H  H29  1  0.06892194  0.37938687  0.02272263  1
  N  N30  1  0.22262819  0.18908699  0.03281217  1
  C  C31  1  0.42369169  0.38320206  0.04511813  1
  H  H32  1  0.11701509  0.18784978  0.09712981  1
  Zn  Zn33  1  0.47697728  0.06213050  0.05988148  1
  H  H34  1  0.32111768  0.30556043  0.23796184  1
  C  C35  1  0.03143781  0.20773771  0.20741664  1
  H  H36  1  0.41757258  0.41875027  0.00274568  1
  H  H37  1  0.22579670  0.00443010  0.13667403  1
  C  C38  1  0.01126177  0.02766544  0.19526336  1
  H  H39  1  0.03709730  0.37487285  0.16605093  1
  N  N40  1  0.39268239  0.11904937  0.43201212  1
  Zn  Zn41  1  0.42009635  0.22094293  0.46431764  1
  C  C42  1  0.22980727  0.45289536  0.31144540  1
  N  N43  1  0.18165832  0.16437117  0.32998501  1
  H  H44  1  0.22239284  0.37241327  0.38697265  1
  H  H45  1  0.15198689  0.01668119  0.32414138  1
  C  C46  1  0.35886367  0.30821405  0.27955861  1
  C  C47  1  0.34154963  0.27557713  0.33650503  1
  C  C48  1  0.16341203  0.14315087  0.42845772  1
  N  N49  1  0.10356789  0.18936127  0.41201046  1
  C  C50  1  0.34792789  0.07021615  0.46108312  1
  H  H51  1  0.26175991  0.08104383  0.36708056  1
  C  C52  1  0.11679584  0.20475841  0.35166240  1
  H  H53  1  0.28015851  0.24669007  0.34826529  1
  C  C54  1  0.21209942  0.12296621  0.37540236  1
  C  C55  1  0.43238017  0.08400978  0.38538422  1
  N  N56  1  0.41787087  0.01054677  0.39051576  1
  H  H57  1  0.07740984  0.23945680  0.32132272  1
  H  H58  1  0.02774490  0.45535448  0.27353385  1
  N  N59  1  0.43979289  0.33077942  0.28420125  1
  N  N60  1  0.40652030  0.27985286  0.37706531  1
  C  C61  1  0.09147299  0.44668272  0.29569871  1
  H  H62  1  0.48602228  0.10692046  0.35967497  1
  H  H63  1  0.16893647  0.12521416  0.47507276  1
  C  C64  1  0.46570170  0.31800476  0.34244401  1
  C  C65  1  0.32756418  0.46815138  0.44309973  1
  N  N66  1  0.10872148  0.40298220  0.34494507  1
  C  C67  1  0.19194502  0.40496356  0.35408332  1
  N  N68  1  0.40624087  0.49366751  0.45309475  1
  H  H69  1  0.39435898  0.17171009  0.27574286  1
  Zn  Zn70  1  0.00673343  0.23192243  0.45935691  1
  N  N71  1  0.16443183  0.47730581  0.27622951  1
  H  H72  1  0.29687897  0.46741068  0.30914377  1
  H  H73  1  0.31049791  0.41003182  0.44469454  1
  H  H74  1  0.35152395  0.31833250  0.66126301  1
  N  N75  1  0.32816714  0.27931865  0.51240034  1
  H  H76  1  0.06288230  0.13983643  0.68392316  1
  H  H77  1  0.01849390  0.25856341  0.60358413  1
  N  N78  1  0.30734288  0.42563956  0.69104359  1
  H  H79  1  0.44007477  0.38690183  0.61814353  1
  Zn  Zn80  1  0.23786816  0.44467422  0.61584579  1
  C  C81  1  0.43161096  0.17111066  0.70918191  1
  C  C82  1  0.04545492  0.14160299  0.63613477  1
  C  C83  1  0.44538661  0.09443724  0.70033033  1
  C  C84  1  0.34652955  0.47422181  0.72739083  1
  C  C85  1  0.33739965  0.34485904  0.54025625  1
  C  C86  1  0.20439575  0.30414589  0.56237772  1
  N  N87  1  0.26364017  0.35691268  0.57099838  1
  N  N88  1  0.01798881  0.17366770  0.54092161  1
  H  H89  1  0.31374051  0.08143674  0.50289435  1
  H  H90  1  0.03867871  0.36405068  0.67056918  1
  N  N91  1  0.42330557  0.37532658  0.73374344  1
  C  C92  1  0.02035317  0.10018055  0.54509592  1
  N  N93  1  0.04369860  0.08099012  0.60237867  1
  C  C94  1  0.35720190  0.36386713  0.69608661  1
  C  C95  1  0.24984936  0.25359817  0.52539375  1
  C  C96  1  0.04809675  0.41074186  0.70173786  1
  H  H97  1  0.39929454  0.05131496  0.69075164  1
  H  H98  1  0.14125968  0.30151238  0.57955850  1
  C  C99  1  0.11499031  0.42403405  0.74543026  1
  C  C100  1  0.02304899  0.20080463  0.59571306  1
  H  H101  1  0.22554074  0.19991660  0.50443643  1
  H  H102  1  0.39437844  0.37814437  0.53322759  1
  H  H103  1  0.43957061  0.48200034  0.64107073  1
  H  H104  1  0.00596570  0.39771224  0.50968329  1
  C  C105  1  0.09729393  0.49695857  0.53568645  1
  H  H106  1  0.37137602  0.20372000  0.70978371  1
  H  H107  1  0.01696413  0.06588285  0.50356273  1
  H  H108  1  0.11024703  0.45562124  0.50434098  1
  C  C109  1  0.25964309  0.39495791  0.84067518  1
  H  H110  1  0.27173168  0.39050090  0.79089106  1
  C  C111  1  0.28015782  0.34036359  0.88585220  1
  H  H112  1  0.18515651  0.45169211  0.97381609  1
  H  H113  1  0.29744087  0.14970001  0.95711156  1
  H  H114  1  0.29745544  0.28377004  0.87941301  1
  C  C115  1  0.21725090  0.42649188  0.93329367  1
  N  N116  1  0.33802824  0.00151898  0.90777659  1
  H  H117  1  0.38652785  0.05690626  0.82940450  1
  N  N118  1  0.25506245  0.36040689  0.94071015  1
  N  N119  1  0.09640244  0.48681302  0.76964589  1
  C  C120  1  0.38630692  0.04920562  0.87896112  1
  N  N121  1  0.22014642  0.44320723  0.87407463  1
  C  C122  1  0.43849781  0.08339181  0.92599582  1
  H  H123  1  0.10200262  0.01934389  0.92643427  1
  H  H124  1  0.46791893  0.46843654  0.78774428  1
  H  H125  1  0.08706978  0.13150916  0.94862418  1
  N  N126  1  0.41357426  0.05847030  0.97826432  1
  H  H127  1  0.49515151  0.12052771  0.92167795  1
  C  C128  1  0.01748661  0.12412231  0.95202022  1
  C  C129  1  0.41819507  0.44337625  0.75672271  1
  C  C130  1  0.35718448  0.00249113  0.96815283  1
  C  C131  1  0.25243946  0.13772646  0.99601345  1
  H  H132  1  0.20215932  0.02132280  0.98799620  1
  H  H133  1  0.17982331  0.39616309  0.75313530  1
  C  C134  1  0.45139888  0.89940840  0.05098770  1
  H  H135  1  0.43109421  0.61568530  0.08369595  1
  N  N136  1  0.19256387  0.65853281  0.03336048  1
  N  N137  1  0.40375834  0.62512825  0.17514836  1
  H  H138  1  0.33851131  0.96563309  0.00548423  1
  H  H139  1  0.40798436  0.79999007  0.16000882  1
  C  C140  1  0.38750734  0.60520680  0.11967645  1
  N  N141  1  0.43574649  0.96113512  0.08237632  1
  H  H142  1  0.03079592  0.65045708  0.12360057  1
  C  C143  1  0.21406579  0.77791488  0.02154632  1
  N  N144  1  0.27678369  0.57477957  0.17824093  1
  C  C145  1  0.30315279  0.57278707  0.12112666  1
  Zn  Zn146  1  0.24314040  0.82694853  0.15438373  1
  H  H147  1  0.10783460  0.72616584  0.21652750  1
  C  C148  1  0.37658156  0.94614374  0.12404191  1
  C  C149  1  0.20419476  0.69101690  0.08867861  1
  C  C150  1  0.04019061  0.87027403  0.03254639  1
  C  C151  1  0.39079968  0.84704398  0.07008627  1
  H  H152  1  0.26495112  0.54600972  0.08579792  1
  N  N153  1  0.20518319  0.92020629  0.20515700  1
  N  N154  1  0.34508630  0.87720741  0.11442585  1
  C  C155  1  0.33756664  0.60971098  0.21141265  1
  H  H156  1  0.20437822  0.66396012  0.13327776  1
  H  H157  1  0.22042179  0.83452512  0.00122856  1
  N  N158  1  0.21564701  0.76292716  0.08040341  1
  Zn  Zn159  1  0.16635999  0.53581238  0.20315675  1
  N  N160  1  0.06034724  0.59676702  0.21410390  1
  H  H161  1  0.37513813  0.79614359  0.04786047  1
  N  N162  1  0.23490998  0.76143313  0.23007856  1
  H  H163  1  0.02822678  0.74661932  0.05580553  1
  N  N164  1  0.48326255  0.76905079  0.23213196  1
  C  C165  1  0.43392979  0.81671378  0.20403912  1
  C  C166  1  0.21077876  0.98973833  0.18658786  1
  H  H167  1  0.35315891  0.98969662  0.15699775  1
  C  C168  1  0.02187142  0.63877504  0.17209748  1
  H  H169  1  0.44090826  0.50756808  0.22224301  1
  H  H170  1  0.07339946  0.99958835  0.20293355  1
  H  H171  1  0.49680589  0.90131576  0.01203491  1
  H  H172  1  0.39551644  0.93168431  0.22798620  1
  C  C173  1  0.42629021  0.87998170  0.24209984  1
  C  C174  1  0.00720699  0.80571770  0.05846259  1
  H  H175  1  0.49097001  0.76088692  0.07444144  1
  N  N176  1  0.00581315  0.92451248  0.06253079  1
  C  C177  1  0.16591103  0.72524742  0.24628953  1
  H  H178  1  0.04542581  0.86145028  0.22889986  1
  C  C179  1  0.17652284  0.69957644  0.30829866  1
  C  C180  1  0.36235231  0.99875433  0.43355216  1
  C  C181  1  0.49440870  0.73406663  0.41809623  1
  C  C182  1  0.40323674  0.56720870  0.44247542  1
  N  N183  1  0.25390363  0.71956722  0.32146345  1
  H  H184  1  0.43663590  0.60898409  0.32799059  1
  H  H185  1  0.20661288  0.53031493  0.40955772  1
  N  N186  1  0.43623779  0.69965305  0.38442473  1
  C  C187  1  0.27699775  0.52652323  0.41970623  1
  C  C188  1  0.29260182  0.75668980  0.27524540  1
  H  H189  1  0.13253014  0.67071557  0.34156933  1
  H  H190  1  0.18484869  0.87056955  0.29163764  1
  N  N191  1  0.32519881  0.58530255  0.41909217  1
  N  N192  1  0.47231742  0.86464024  0.29207320  1
  H  H193  1  0.34214220  0.94541292  0.45049505  1
  H  H194  1  0.20440888  0.83660586  0.46445908  1
  C  C195  1  0.01944789  0.60575551  0.26677310  1
  H  H196  1  0.04293122  0.58215109  0.30972214  1
  H  H197  1  0.02701001  0.92357802  0.34700947  1
  H  H198  1  0.35859692  0.77955100  0.27948116  1
  Zn  Zn199  1  0.30463518  0.69190123  0.40060483  1
  C  C200  1  0.18784741  0.92080370  0.26392847  1
  H  H201  1  0.34257308  0.62584344  0.26015119  1
  C  C202  1  0.47553626  0.64856217  0.35218403  1
  H  H203  1  0.45308998  0.60914648  0.44800987  1
  Zn  Zn204  1  0.49464198  0.94021503  0.35023023  1
  N  N205  1  0.29728910  0.74946896  0.48048520  1
  H  H206  1  0.47741624  0.77775484  0.45253946  1
  C  C207  1  0.16968227  0.99400907  0.28080867  1
  C  C208  1  0.24761234  0.80708690  0.49412204  1
  H  H209  1  0.11737965  0.57438748  0.66724550  1
  C  C210  1  0.33803693  0.72598502  0.53100950  1
  H  H211  1  0.48391665  0.86593148  0.64033598  1
  N  N212  1  0.37386372  0.64468568  0.62809703  1
  C  C213  1  0.44165711  0.60423485  0.63789508  1
  N  N214  1  0.20593828  0.75224941  0.67189202  1
  C  C215  1  0.46562917  0.86611382  0.68806879  1
  N  N216  1  0.31332642  0.76678826  0.57881253  1
  H  H217  1  0.37993960  0.67812686  0.53839619  1
  C  C218  1  0.07234000  0.76652828  0.69804146  1
  C  C219  1  0.24234701  0.96012679  0.67604760  1
  N  N220  1  0.41349823  0.81821234  0.71692542  1
  N  N221  1  0.16111331  0.96782541  0.69312235  1
  H  H222  1  0.17934934  0.69327537  0.59006329  1
  N  N223  1  0.33337238  0.53359764  0.60292651  1
  C  C224  1  0.15908763  0.78372083  0.71449237  1
  C  C225  1  0.10416699  0.55646709  0.62062543  1
  C  C226  1  0.15421625  0.71893694  0.63019037  1
  C  C227  1  0.04420155  0.85223060  0.55582890  1
  C  C228  1  0.30960114  0.60453637  0.60559153  1
  Zn  Zn229  1  0.34029903  0.74647006  0.67065412  1
  H  H230  1  0.24530821  0.62488428  0.60286939  1
  C  C231  1  0.28853024  0.94802680  0.73238253  1
  N  N232  1  0.04214496  0.58873341  0.58728859  1
  H  H233  1  0.09634233  0.82462486  0.58060509  1
  C  C234  1  0.41571708  0.53318629  0.62328747  1
  N  N235  1  0.07302327  0.72673460  0.64731288  1
  N  N236  1  0.13848382  0.50091265  0.58739819  1
  N  N237  1  0.01741472  0.91669650  0.57262665  1
  H  H238  1  0.22437648  0.85556064  0.58833394  1
  H  H239  1  0.01482308  0.78392003  0.71969611  1
  C  C240  1  0.25839544  0.81675057  0.55808789  1
  H  H241  1  0.49349561  0.62912386  0.66316762  1
  H  H242  1  0.26407596  0.97177873  0.62801309  1
  C  C243  1  0.03401242  0.55446647  0.53533901  1
  H  H244  1  0.32983946  0.53190833  0.72013272  1
  Zn  Zn245  1  0.06713520  0.98673911  0.63640598  1
  H  H246  1  0.18760051  0.64925365  0.72740053  1
  N  N247  1  0.32103869  0.67500132  0.74223592  1
  H  H248  1  0.35544763  0.92922375  0.74219834  1
  C  C249  1  0.01984392  0.51061432  0.74965387  1
  H  H250  1  0.24012078  0.77021004  0.86277709  1
  C  C251  1  0.05371780  0.65907016  0.84614119  1
  N  N252  1  0.00267061  0.69712167  0.88694905  1
  C  C253  1  0.40486875  0.84769635  0.91453167  1
  H  H254  1  0.37420555  0.79093762  0.80401777  1
  H  H255  1  0.05837710  0.67916190  0.79952039  1
  H  H256  1  0.44527980  0.89532503  0.91748010  1
  N  N257  1  0.43289569  0.77671427  0.91925325  1
  N  N258  1  0.14007223  0.91911469  0.88068303  1
  C  C259  1  0.08775023  0.96522183  0.91032519  1
  H  H260  1  0.12255135  0.81422642  0.83730709  1
  N  N261  1  0.25843205  0.59352392  0.80315002  1
  C  C262  1  0.09732918  0.85892677  0.86344983  1
  C  C263  1  0.29699371  0.78081486  0.88729169  1
  N  N264  1  0.09131763  0.60598250  0.87612353  1
  Zn  Zn265  1  0.17688134  0.53259999  0.83339993  1
  C  C266  1  0.41569949  0.82784350  0.77496560  1
  N  N267  1  0.32228920  0.84902032  0.89588142  1
  N  N268  1  0.23315603  0.95284640  0.77842294  1
  H  H269  1  0.36400844  0.56740781  0.85922100  1
  Zn  Zn270  1  0.25866228  0.93933525  0.86335262  1
  C  C271  1  0.36652245  0.73498897  0.90592721  1
  N  N272  1  0.01416479  0.86465139  0.88320583  1
  H  H273  1  0.44165300  0.67362520  0.77867508  1
  H  H274  1  0.37180550  0.67525195  0.90333528  1
  H  H275  1  0.08828898  0.57410240  0.97293392  1
  C  C276  1  0.33805927  0.60251729  0.82197095  1
  C  C277  1  0.37936874  0.65274655  0.78030132  1
  H  H278  1  0.17153029  0.70309768  0.94669011  1
  C  C279  1  0.24727319  0.63827157  0.75352165  1
  C  C280  1  0.06973917  0.60842228  0.93399447  1
  H  H281  1  0.08867451  0.88669747  0.99590225  1
  H  H282  1  0.09536858  0.96640963  0.78577020  1
  C  C283  1  0.00955488  0.66713612  0.94025798  1
  C  C284  1  0.00734721  0.92775930  0.91081204  1
  C  C285  1  0.47022652  0.88992046  0.78431452  1
  C  C286  1  0.15444632  0.96362628  0.75489341  1
  H  H287  1  0.48147358  0.91987882  0.82756804  1
  C  C288  1  0.19295381  0.71290781  0.99143942  1
  H  H289  1  0.18693104  0.81746656  0.75183515  1
  N  N290  1  0.97886259  0.04341012  0.14141192  1
  N  N291  1  0.58275393  0.10454548  0.03553895  1
  H  H292  1  0.88166958  0.35400518  0.11150854  1
  N  N293  1  0.85307868  0.44170852  0.24024328  1
  H  H294  1  0.60892370  0.16851499  0.11483103  1
  C  C295  1  0.70379092  0.16728418  0.03398337  1
  N  N296  1  0.56368187  0.44824407  0.22477920  1
  C  C297  1  0.62807952  0.15046690  0.06875178  1
  C  C298  1  0.87555323  0.39243469  0.14960196  1
  N  N299  1  0.72928589  0.21078316  0.22115173  1
  N  N300  1  0.89811639  0.46149840  0.14728541  1
  C  C301  1  0.84545406  0.37897535  0.20960439  1
  C  C302  1  0.90012110  0.07364522  0.14949304  1
  H  H303  1  0.75861206  0.20649397  0.04254908  1
  C  C304  1  0.63365372  0.03593955  0.20775214  1
  N  N305  1  0.88181182  0.07369923  0.20979745  1
  C  C306  1  0.94682931  0.04469206  0.23997723  1
  H  H307  1  0.86049491  0.08944739  0.10988004  1
  N  N308  1  0.62827427  0.29339180  0.20848995  1
  H  H309  1  0.65054509  0.04612583  0.15924850  1
  H  H310  1  0.78628791  0.21363960  0.13730946  1
  C  C311  1  0.67596692  0.29506558  0.15907117  1
  C  C312  1  0.74187394  0.24083052  0.16772846  1
  H  H313  1  0.65914927  0.33081732  0.12094827  1
  Zn  Zn314  1  0.51884584  0.35049944  0.21750587  1
  N  N315  1  0.99276285  0.26952937  0.18876737  1
  H  H316  1  0.82185541  0.32668867  0.22593581  1
  H  H317  1  0.53301854  0.13315626  0.19203373  1
  H  H318  1  0.99813555  0.15456126  0.21607757  1
  H  H319  1  0.84182336  0.05491910  0.00965504  1
  H  H320  1  0.53923780  0.43099308  0.09278623  1
  C  C321  1  0.89066045  0.48968997  0.20369529  1
  C  C322  1  0.65938334  0.24286425  0.24733734  1
  Zn  Zn323  1  0.78301751  0.11642937  0.24850631  1
  H  H324  1  0.69507154  0.42637370  0.22176506  1
  C  C325  1  0.64488113  0.46748134  0.22658427  1
  N  N326  1  0.60344913  0.40604473  0.41972755  1
  H  H327  1  0.88223788  0.09439572  0.47195264  1
  C  C328  1  0.93182139  0.34368966  0.37957760  1
  H  H329  1  0.92292249  0.30540251  0.34541347  1
  C  C330  1  0.82860569  0.08323705  0.37797698  1
  H  H331  1  0.78178046  0.03987817  0.37791093  1
  H  H332  1  0.77289375  0.30845704  0.37259298  1
  H  H333  1  0.91866353  0.22033530  0.31271261  1
  N  N334  1  0.91654286  0.17429921  0.40484978  1
  C  C335  1  0.92263936  0.44772766  0.43317097  1
  C  C336  1  0.62482000  0.00235321  0.44303823  1
  N  N337  1  0.71854679  0.41538493  0.36230624  1
  C  C338  1  0.64461869  0.45087642  0.38098069  1
  Zn  Zn339  1  0.81564812  0.46034253  0.32600341  1
  C  C340  1  0.59587479  0.17915083  0.42075706  1
  H  H341  1  0.62791696  0.29337868  0.45111375  1
  N  N342  1  0.89639169  0.41048557  0.38456160  1
  H  H343  1  0.95226587  0.05126045  0.29089702  1
  C  C344  1  0.87653335  0.11456964  0.42570899  1
  Zn  Zn345  1  0.50834623  0.43012374  0.47486219  1
  C  C346  1  0.64015609  0.03402764  0.30594098  1
  C  C347  1  0.89775842  0.17906177  0.34536701  1
  H  H348  1  0.57055376  0.17572733  0.37334859  1
  N  N349  1  0.84268096  0.12578724  0.32992342  1
  C  C350  1  0.71898220  0.34800555  0.38245935  1
  N  N351  1  0.54940740  0.19625740  0.46755949  1
  C  C352  1  0.64346230  0.34250489  0.42069614  1
  H  H353  1  0.74141644  0.15912941  0.41446502  1
  H  H354  1  0.52964608  0.33408574  0.35946702  1
  H  H355  1  0.62738063  0.23055065  0.29143096  1
  C  C356  1  0.68205315  0.16667821  0.44229994  1
  H  H357  1  0.82332387  0.31447622  0.47624802  1
  H  H358  1  0.66157185  0.04204125  0.35247349  1
  H  H359  1  0.58073081  0.04347456  0.45607947  1
  N  N360  1  0.97289353  0.33221451  0.43289330  1
  C  C361  1  0.97391543  0.39399567  0.46442026  1
  H  H362  1  0.74982123  0.02386310  0.49105250  1
  N  N363  1  0.67724349  0.06016157  0.25330179  1
  C  C364  1  0.82853804  0.32644094  0.52430512  1
  C  C365  1  0.50731790  0.37634178  0.60705814  1
  C  C366  1  0.63523982  0.33572246  0.61968832  1
  H  H367  1  0.61531318  0.09734015  0.60918033  1
  N  N368  1  0.56067039  0.34658887  0.64745462  1
  N  N369  1  0.75581598  0.08816350  0.59939524  1
  N  N370  1  0.85147444  0.38437303  0.60986556  1
  H  H371  1  0.63739195  0.15579486  0.72476659  1
  C  C372  1  0.82872475  0.31413753  0.62256416  1
  H  H373  1  0.58157929  0.21399376  0.56623707  1
  Zn  Zn374  1  0.78356927  0.18165703  0.55104478  1
  Zn  Zn375  1  0.52677691  0.31190111  0.73741209  1
  Zn  Zn376  1  0.87234357  0.46253085  0.66596328  1
  H  H377  1  0.86732703  0.44822098  0.52971440  1
  C  C378  1  0.63146583  0.36394454  0.55888866  1
  N  N379  1  0.50704117  0.19993064  0.71639536  1
  N  N380  1  0.55064957  0.38475186  0.55469078  1
  C  C381  1  0.67494526  0.06724111  0.61587828  1
  C  C382  1  0.80879509  0.03907409  0.62457817  1
  H  H383  1  0.68080680  0.35999389  0.52328459  1
  N  N384  1  0.81511952  0.27928797  0.56921295  1
  H  H385  1  0.81586210  0.29178144  0.66726791  1
  C  C386  1  0.85271426  0.39641024  0.55125782  1
  H  H387  1  0.68575576  0.30859233  0.64365135  1
  C  C388  1  0.56710871  0.14632639  0.71659677  1
  H  H389  1  0.69896029  0.46212409  0.59766254  1
  N  N390  1  0.68064721  0.01187915  0.65578280  1
  H  H391  1  0.87980601  0.04635035  0.61826133  1
  N  N392  1  0.52774515  0.08153279  0.70671503  1
  N  N393  1  0.98889279  0.46213354  0.70868678  1
  N  N394  1  0.68135485  0.18016298  0.50136183  1
  C  C395  1  0.60159663  0.20069426  0.51756250  1
  H  H396  1  0.65982503  0.11727437  0.78710817  1
  H  H397  1  0.84424170  0.28719011  0.82937285  1
  C  C398  1  0.95218689  0.15693700  0.91441545  1
  H  H399  1  0.60332098  0.05276763  0.94555103  1
  H  H400  1  0.58592663  0.20876700  0.85096516  1
  N  N401  1  0.63930261  0.29649804  0.79470939  1
  C  C402  1  0.67409010  0.06405346  0.80905231  1
  C  C403  1  0.64173167  0.24290932  0.83769488  1
  N  N404  1  0.87895953  0.13213896  0.93718155  1
  H  H405  1  0.95170102  0.19642414  0.87535830  1
  N  N406  1  0.72527795  0.06038168  0.86050660  1
  N  N407  1  0.69361737  0.13465112  0.98002508  1
  Zn  Zn408  1  0.76778143  0.15390566  0.90951803  1
  C  C409  1  0.62495640  0.09036122  0.98211681  1
  C  C410  1  0.77180833  0.27885923  0.82584624  1
  N  N411  1  0.72296727  0.23200895  0.85692297  1
  C  C412  1  0.89424080  0.08681681  0.98520078  1
  C  C413  1  0.71749670  0.32309429  0.78990288  1
  N  N414  1  0.98080786  0.08351745  0.99388667  1
  H  H415  1  0.73447898  0.36589099  0.75478431  1
  H  H416  1  0.68086749  0.81834444  0.02983048  1
  H  H417  1  0.90709897  0.93191123  0.13661783  1
  C  C418  1  0.94616528  0.89857148  0.10406510  1
  N  N419  1  0.96123471  0.67972751  0.20038682  1
  N  N420  1  0.56421905  0.56851658  0.21855354  1
  H  H421  1  0.91256049  0.54567122  0.21663599  1
  H  H422  1  0.79198525  0.59454001  0.24486574  1
  Zn  Zn423  1  0.90105184  0.76476182  0.16630596  1
  C  C424  1  0.73100531  0.82788739  0.18184986  1
  N  N425  1  0.54998130  0.65942887  0.10380191  1
  H  H426  1  0.74000937  0.64995863  0.17223219  1
  H  H427  1  0.75735807  0.88389487  0.18662998  1
  H  H428  1  0.58806243  0.83423100  0.19865042  1
  C  C429  1  0.59019434  0.60599242  0.07613080  1
  C  C430  1  0.52737507  0.70976593  0.06234231  1
  C  C431  1  0.64474178  0.80406118  0.19094627  1
  N  N432  1  0.55883861  0.68634828  0.00773384  1
  H  H433  1  0.61254482  0.55558852  0.09901739  1
  N  N434  1  0.95314475  0.82569384  0.10370699  1
  C  C435  1  0.56147843  0.99280662  0.23118737  1
  N  N436  1  0.77589721  0.76726588  0.17538626  1
  C  C437  1  0.72244263  0.70801388  0.17824445  1
  C  C438  1  0.51252538  0.50818818  0.22429431  1
  N  N439  1  0.64366773  0.73071402  0.18914654  1
  Zn  Zn440  1  0.52656584  0.66951286  0.19539773  1
  H  H441  1  0.50996366  0.96509157  0.20664456  1
  C  C442  1  0.59636508  0.62239805  0.01253129  1
  C  C443  1  0.64396779  0.54519441  0.22247400  1
  N  N444  1  0.92243773  0.82677255  0.24730928  1
  H  H445  1  0.69614594  0.58910554  0.21862177  1
  N  N446  1  0.57163286  0.99343831  0.28987149  1
  C  C447  1  0.99397057  0.86187974  0.25817437  1
  C  C448  1  0.98734576  0.89303819  0.31785497  1
  C  C449  1  0.78373193  0.61393635  0.29252309  1
  H  H450  1  0.71810527  0.72715650  0.29791581  1
  C  C451  1  0.74757200  0.67749970  0.31879713  1
  C  C452  1  0.77915152  0.59873676  0.39239158  1
  N  N453  1  0.60434253  0.94716843  0.40596513  1
  C  C454  1  0.87018103  0.83431827  0.29494103  1
  N  N455  1  0.91314671  0.87256633  0.33975892  1
  H  H456  1  0.91670577  0.69056740  0.29398253  1
  C  C457  1  0.56494373  0.65118773  0.36518810  1
  N  N458  1  0.79830834  0.56706103  0.33898805  1
  N  N459  1  0.57159056  0.70229859  0.40736797  1
  N  N460  1  0.74236355  0.93522362  0.42690194  1
  H  H461  1  0.53962951  0.76708393  0.32270448  1
  C  C462  1  0.95574374  0.66327800  0.25891534  1
  H  H463  1  0.62439756  0.50784132  0.37117919  1
  Zn  Zn464  1  0.86697117  0.89801592  0.42175481  1
  H  H465  1  0.77813367  0.56830405  0.43708999  1
  C  C466  1  0.50288113  0.79577456  0.28756919  1
  H  H467  1  0.80474067  0.81504115  0.29408950  1
  N  N468  1  0.74633078  0.66430000  0.37857737  1
  C  C469  1  0.67454357  0.90825132  0.39413836  1
  C  C470  1  0.71047522  0.98919360  0.46134824  1
  H  H471  1  0.67799786  0.86774511  0.35731432  1
  Zn  Zn472  1  0.68728413  0.73313922  0.43593588  1
  H  H473  1  0.62035635  0.62679173  0.34266808  1
  H  H474  1  0.90330183  0.50461694  0.44551573  1
  H  H475  1  0.99505972  0.77803564  0.47864059  1
  N  N476  1  0.94033693  0.88541395  0.49118580  1
  N  N477  1  0.51855640  0.83529690  0.53439769  1
  N  N478  1  0.78615325  0.53496674  0.64783694  1
  C  C479  1  0.86058604  0.79299762  0.57313971  1
  C  C480  1  0.71562135  0.51725540  0.61745940  1
  N  N481  1  0.50225133  0.90935340  0.73093968  1
  N  N482  1  0.71068400  0.63429404  0.64723754  1
  N  N483  1  0.61180881  0.79903470  0.60353689  1
  Zn  Zn484  1  0.66635755  0.73867734  0.67001258  1
  H  H485  1  0.51712160  0.72245137  0.57047100  1
  C  C486  1  0.66929726  0.58418587  0.61521655  1
  C  C487  1  0.54537202  0.77858434  0.56865133  1
  C  C488  1  0.95588891  0.93866526  0.53297979  1
  H  H489  1  0.81434681  0.63306911  0.51613608  1
  C  C490  1  0.81927044  0.82872068  0.69777933  1
  H  H491  1  0.82983427  0.63360583  0.69779456  1
  H  H492  1  0.80113223  0.86265844  0.65807255  1
  H  H493  1  0.60324586  0.59334451  0.59694035  1
  C  C494  1  0.62552981  0.86992603  0.59022259  1
  N  N495  1  0.77225137  0.77123228  0.71127094  1
  C  C496  1  0.79010692  0.80724998  0.53322238  1
  Zn  Zn497  1  0.58963791  0.98484758  0.71507075  1
  H  H498  1  0.90178560  0.83237735  0.59673000  1
  N  N499  1  0.87477021  0.72084953  0.56989781  1
  H  H500  1  0.67871941  0.89827044  0.61195383  1
  C  C501  1  0.78449912  0.60589106  0.66650637  1
  Zn  Zn502  1  0.97077389  0.67701970  0.60808207  1
  C  C503  1  0.56905212  0.89424127  0.54599645  1
  H  H504  1  0.56391813  0.94531598  0.52124068  1
  C  C505  1  0.81613736  0.69119327  0.52920389  1
  H  H506  1  0.78141133  0.95131085  0.69771533  1
  H  H507  1  0.75756093  0.85640239  0.51900390  1
  N  N508  1  0.76805870  0.74468209  0.50597369  1
  H  H509  1  0.93163968  0.99648519  0.53353286  1
  N  N510  1  0.59229136  0.70593185  0.74522725  1
  C  C511  1  0.99085580  0.82920133  0.50547249  1
  H  H512  1  0.58312723  0.58870117  0.72824578  1
  C  C513  1  0.76127280  0.99088052  0.66218212  1
  C  C514  1  0.88427653  0.83619001  0.74428600  1
  H  H515  1  0.98386954  0.56687026  0.50246508  1
  H  H516  1  0.94415725  0.95210220  0.92603450  1
  N  N517  1  0.87367969  0.78076744  0.78088984  1
  N  N518  1  0.56370061  0.70448374  0.84448416  1
  C  C519  1  0.69257436  0.94495281  0.82291277  1
  C  C520  1  0.80819181  0.73931473  0.76150035  1
  C  C521  1  0.57607829  0.63685021  0.76094557  1
  H  H522  1  0.72776932  0.73521020  0.85179377  1
  C  C523  1  0.57996182  0.74760895  0.79581426  1
  Zn  Zn524  1  0.55171674  0.73801688  0.92901947  1
  H  H525  1  0.69602052  0.88587570  0.81354178  1
  C  C526  1  0.73463563  0.76832206  0.89426533  1
  N  N527  1  0.65661655  0.99678807  0.78775690  1
  C  C528  1  0.80051748  0.82477587  0.96804567  1
  N  N529  1  0.80875917  0.79646916  0.91352015  1
  H  H530  1  0.59862382  0.80537531  0.79945776  1
  Zn  Zn531  1  0.92319198  0.78621139  0.86653447  1
  H  H532  1  0.77824083  0.96456551  0.90380946  1
  H  H533  1  0.54066427  0.58937771  0.85484249  1
  H  H534  1  0.77896432  0.69300512  0.78735911  1
  H  H535  1  0.92511652  0.88273285  0.75842604  1
  N  N536  1  0.67484570  0.78008855  0.93850908  1
  C  C537  1  0.73669382  0.98678589  0.86674644  1
  C  C538  1  0.71338128  0.81078124  0.98445789  1
  C  C539  1  0.55773735  0.63575062  0.82438654  1
  H  H540  1  0.98457364  0.55929908  0.76676832  1
  H  H541  1  0.62774641  0.58938529  0.97847798  1
  H  H542  1  0.97212971  0.68481047  0.98050160  1
  H  H543  1  0.85522292  0.85149171  0.99200379  1
