# generated using pymatgen
data_ZnH10(C7N2)2
_symmetry_space_group_name_H-M   'P 1'
_cell_length_a   24.15519875
_cell_length_b   16.77742663
_cell_length_c   14.43163468
_cell_angle_alpha   90.00000000
_cell_angle_beta   90.00000000
_cell_angle_gamma   90.00000000
_symmetry_Int_Tables_number   1
_chemical_formula_structural   ZnH10(C7N2)2
_chemical_formula_sum   'Zn18 H180 C252 N72'
_cell_volume   5848.59421262
_cell_formula_units_Z   18
loop_
 _symmetry_equiv_pos_site_id
 _symmetry_equiv_pos_as_xyz
  1  'x, y, z'
loop_
 _atom_site_type_symbol
 _atom_site_label
 _atom_site_symmetry_multiplicity
 _atom_site_fract_x
 _atom_site_fract_y
 _atom_site_fract_z
 _atom_site_occupancy
  H  H0  1  0.06278191  0.41629635  0.42299783  1
  C  C1  1  0.22403526  0.31824519  0.01890683  1
  H  H2  1  0.02117231  0.07261798  0.11373249  1
  H  H3  1  0.15805519  0.39161261  0.10876671  1
  C  C4  1  0.05177713  0.45946459  0.36811109  1
  C  C5  1  0.08229979  0.45707921  0.28072015  1
  C  C6  1  0.09514687  0.01455179  0.27569996  1
  C  C7  1  0.05594515  0.28406352  0.45456626  1
  N  N8  1  0.09907292  0.49196765  0.12631294  1
  H  H9  1  0.06028866  0.13127415  0.23928188  1
  Zn  Zn10  1  0.14952909  0.32237064  0.31643758  1
  C  C11  1  0.12846581  0.42675495  0.15190560  1
  N  N12  1  0.11821773  0.40317366  0.23855818  1
  N  N13  1  0.11189472  0.29706623  0.43995790  1
  H  H14  1  0.14895261  0.05228220  0.40466170  1
  Zn  Zn15  1  0.08011684  0.24582594  0.05390643  1
  C  C16  1  0.18744127  0.14472608  0.04298178  1
  C  C17  1  0.22685853  0.17627563  0.28366033  1
  N  N18  1  0.21295442  0.07530383  0.06911988  1
  C  C19  1  0.09507795  0.09166073  0.22899124  1
  N  N20  1  0.21686110  0.25450234  0.27269766  1
  C  C21  1  0.18143594  0.04782977  0.14227211  1
  N  N22  1  0.13934798  0.16556574  0.09201062  1
  C  C23  1  0.13503229  0.10240357  0.15813318  1
  H  H24  1  0.22117149  0.29496079  0.09027605  1
  C  C25  1  0.17792099  0.01919804  0.45122320  1
  H  H26  1  0.18945630  0.14128457  0.29919815  1
  N  N27  1  0.01720377  0.24697510  0.15113559  1
  C  C28  1  0.00619532  0.26581335  0.40816863  1
  H  H29  1  0.00853240  0.25171660  0.33470917  1
  H  H30  1  0.20699610  0.49840227  0.41784330  1
  C  C31  1  0.04919611  0.30023209  0.55693520  1
  H  H32  1  0.17654967  0.34283943  0.53012287  1
  C  C33  1  0.09545489  0.12897216  0.83955816  1
  N  N34  1  0.13216118  0.37998939  0.82559036  1
  H  H35  1  0.05845776  0.09230351  0.60980317  1
  H  H36  1  0.19747406  0.18202464  0.98331657  1
  H  H37  1  0.14260336  0.09456968  0.71809940  1
  C  C38  1  0.18422953  0.36664095  0.86783958  1
  C  C39  1  0.05321994  0.10969103  0.68238143  1
  H  H40  1  0.12929916  0.13004688  0.88673849  1
  N  N41  1  0.09867094  0.32942474  0.59617862  1
  N  N42  1  0.02886844  0.20211022  0.94980284  1
  C  C43  1  0.09676064  0.34622042  0.88728230  1
  H  H44  1  0.05361755  0.34393834  0.86289908  1
  Zn  Zn45  1  0.11180231  0.42000959  0.69811577  1
  C  C46  1  0.17633494  0.33286545  0.96381239  1
  N  N47  1  0.12104323  0.31233762  0.96311448  1
  C  C48  1  0.04190552  0.15811173  0.87335322  1
  H  H49  1  0.24852119  0.40794060  0.76724053  1
  C  C50  1  0.09983278  0.10889468  0.74300708  1
  C  C51  1  0.13372278  0.31839549  0.52215481  1
  H  H52  1  0.01743326  0.49971151  0.82634542  1
  C  C53  1  0.23839668  0.38806782  0.83601830  1
  N  N54  1  0.04155504  0.49299599  0.67947809  1
  H  H55  1  0.24551496  0.49197862  0.71284615  1
  N  N56  1  0.16910045  0.49889050  0.63569596  1
  H  H57  1  0.19025367  0.06051426  0.50817964  1
  H  H58  1  0.18456693  0.68957977  0.39733930  1
  C  C59  1  0.21560094  0.86894093  0.10114473  1
  C  C60  1  0.02564164  0.78665176  0.26500808  1
  H  H61  1  0.02814019  0.62694956  0.17243321  1
  N  N62  1  0.03406117  0.77178608  0.10970707  1
  C  C63  1  0.06895314  0.51371035  0.20342159  1
  C  C64  1  0.24429724  0.50612925  0.37267949  1
  C  C65  1  0.01260859  0.58713058  0.31297761  1
  N  N66  1  0.13252572  0.88423517  0.47077712  1
  H  H67  1  0.06529706  0.99689459  0.32542045  1
  H  H68  1  0.12338722  0.81064155  0.11603728  1
  C  C69  1  0.18500830  0.97207483  0.19567951  1
  C  C70  1  0.03581717  0.58145703  0.22534440  1
  H  H71  1  0.18989286  0.54110015  0.25996864  1
  Zn  Zn72  1  0.14252660  0.85048968  0.32893195  1
  C  C73  1  0.13861955  0.96356092  0.25250880  1
  N  N74  1  0.08089549  0.80437510  0.24162390  1
  C  C75  1  0.22242429  0.71783586  0.37104203  1
  C  C76  1  0.00010097  0.79310008  0.35369203  1
  C  C77  1  0.08191067  0.79797274  0.14934222  1
  H  H78  1  0.01548244  0.82733719  0.41044776  1
  N  N79  1  0.22160189  0.90823235  0.18701890  1
  C  C80  1  0.23471679  0.53984440  0.28455141  1
  C  C81  1  0.24885228  0.54455083  0.02780186  1
  C  C82  1  0.23361158  0.78726312  0.09665059  1
  H  H83  1  0.16352053  0.53395422  0.05811781  1
  N  N84  1  0.21666018  0.78277874  0.34308866  1
  H  H85  1  0.24341195  0.75620461  0.15994325  1
  H  H86  1  0.18790197  0.96699216  0.01182491  1
  C  C87  1  0.22515127  0.99431811  0.40207419  1
  C  C88  1  0.08126738  0.63845501  0.49749301  1
  H  H89  1  0.04256420  0.64559578  0.46072226  1
  C  C90  1  0.20455408  0.90558153  0.01317365  1
  C  C91  1  0.01808395  0.52636706  0.38052493  1
  C  C92  1  0.24413757  0.74482745  0.01328759  1
  C  C93  1  0.19374681  0.55508023  0.00750749  1
  C  C94  1  0.09874072  0.56369832  0.52976699  1
  C  C95  1  0.21747430  0.52901745  0.66943784  1
  C  C96  1  0.04638394  0.69932422  0.79369359  1
  C  C97  1  0.15265673  0.55935756  0.57410819  1
  H  H98  1  0.18595048  0.63546398  0.78128777  1
  C  C99  1  0.07112658  0.62992620  0.75520204  1
  C  C100  1  0.16392144  0.70904086  0.56398430  1
  H  H101  1  0.11601480  0.62242749  0.76959528  1
  H  H102  1  0.13179401  0.93773945  0.58329246  1
  C  C103  1  0.03678843  0.57353249  0.71115537  1
  C  C104  1  0.20207049  0.60941154  0.84725144  1
  C  C105  1  0.18786303  0.63106674  0.58855351  1
  H  H106  1  0.07065453  0.74168146  0.83779621  1
  C  C107  1  0.17040939  0.58815980  0.92357997  1
  N  N108  1  0.23056615  0.60451466  0.64139201  1
  H  H109  1  0.18127848  0.76860392  0.58827871  1
  H  H110  1  0.23760025  0.75807955  0.86484571  1
  C  C111  1  0.23246771  0.78786575  0.93000024  1
  H  H112  1  0.12579457  0.59067202  0.91287646  1
  C  C113  1  0.11410621  0.70780240  0.51700616  1
  H  H114  1  0.09323880  0.76633613  0.50213430  1
  H  H115  1  0.20939918  0.90532767  0.86489768  1
  C  C116  1  0.21484914  0.86716039  0.92832791  1
  H  H117  1  0.07562758  0.50952632  0.52343427  1
  C  C118  1  0.14536717  0.94082783  0.50971213  1
  H  H119  1  0.01282862  0.56186350  0.97968177  1
  H  H120  1  0.45942822  0.18050882  0.21223100  1
  H  H121  1  0.31372800  0.33144537  0.02705880  1
  H  H122  1  0.42065813  0.32846476  0.15536163  1
  H  H123  1  0.25849415  0.41387417  0.23450112  1
  C  C124  1  0.30920016  0.21429597  0.23837940  1
  N  N125  1  0.39658917  0.03559535  0.43684968  1
  H  H126  1  0.45058550  0.27553849  0.35120968  1
  C  C127  1  0.33980839  0.37482999  0.19312227  1
  C  C128  1  0.47443538  0.29090912  0.28864530  1
  C  C129  1  0.36381811  0.23257570  0.20349624  1
  H  H130  1  0.30202836  0.15542946  0.08639378  1
  H  H131  1  0.31201117  0.46507514  0.46851335  1
  N  N132  1  0.34806161  0.00096839  0.12888901  1
  C  C133  1  0.29893995  0.49371931  0.40200580  1
  H  H134  1  0.34992024  0.43727769  0.17643778  1
  N  N135  1  0.27937383  0.14834697  0.26325676  1
  N  N136  1  0.44089149  0.15489782  0.42371763  1
  H  H137  1  0.41691048  0.39705515  0.03568550  1
  C  C138  1  0.36232936  0.05821774  0.05930987  1
  C  C139  1  0.26954584  0.28379066  0.24867796  1
  C  C140  1  0.40635987  0.03253875  0.00220666  1
  C  C141  1  0.48189805  0.23783547  0.21449224  1
  C  C142  1  0.38022316  0.31279052  0.18709421  1
  H  H143  1  0.33760102  0.34842508  0.38417015  1
  H  H144  1  0.39600363  0.18412580  0.19340542  1
  C  C145  1  0.33467029  0.13271746  0.04300319  1
  C  C146  1  0.33873278  0.33965315  0.45498268  1
  Zn  Zn147  1  0.30116656  0.03013416  0.25157161  1
  C  C148  1  0.28502347  0.36309466  0.22542923  1
  Zn  Zn149  1  0.45411379  0.43912617  0.46607935  1
  C  C150  1  0.39093591  0.11471567  0.42548389  1
  H  H151  1  0.35021558  0.14511651  0.41918699  1
  C  C152  1  0.45258566  0.01926606  0.44124439  1
  C  C153  1  0.48044439  0.09876700  0.43553522  1
  N  N154  1  0.29980755  0.29812397  0.49881298  1
  H  H155  1  0.25485103  0.22348920  0.66542057  1
  H  H156  1  0.34361654  0.24329146  0.96206830  1
  C  C157  1  0.28270035  0.38028914  0.89856630  1
  H  H158  1  0.39105187  0.33220427  0.83080063  1
  C  C159  1  0.43164296  0.07886430  0.93351343  1
  C  C160  1  0.36902871  0.33202451  0.59631265  1
  C  C161  1  0.32002688  0.27077641  0.75520665  1
  C  C162  1  0.39583347  0.34884881  0.68554596  1
  C  C163  1  0.31439009  0.29215399  0.58734869  1
  C  C164  1  0.34742693  0.01386864  0.78165399  1
  C  C165  1  0.40756057  0.15706910  0.93064220  1
  N  N166  1  0.38436042  0.36154157  0.50867986  1
  H  H167  1  0.41603367  0.19185619  0.66386207  1
  H  H168  1  0.43197061  0.38644583  0.69450108  1
  C  C169  1  0.37063214  0.31816080  0.76363523  1
  H  H170  1  0.32029889  0.41467144  0.88277428  1
  C  C171  1  0.29401811  0.25579009  0.67069209  1
  H  H172  1  0.46843141  0.05913771  0.89090737  1
  H  H173  1  0.34340806  0.06587872  0.64444231  1
  H  H174  1  0.42578575  0.20003526  0.87984197  1
  H  H175  1  0.35574496  0.07380689  0.81738000  1
  H  H176  1  0.29690852  0.24950337  0.81752236  1
  C  C177  1  0.44933055  0.16099637  0.70414504  1
  C  C178  1  0.35872522  0.18344130  0.97503853  1
  C  C179  1  0.45364143  0.07777050  0.69451461  1
  H  H180  1  0.42559548  0.05015541  0.64204922  1
  C  C181  1  0.47140032  0.47865322  0.95633108  1
  C  C182  1  0.27665268  0.34285012  0.98711327  1
  C  C183  1  0.49151653  0.20172475  0.75356288  1
  C  C184  1  0.48098156  0.33338175  0.95715618  1
  C  C185  1  0.49193935  0.02952197  0.74010946  1
  H  H186  1  0.48152237  0.26507798  0.76494213  1
  C  C187  1  0.34314075  0.00803957  0.68567971  1
  H  H188  1  0.46917379  0.27306370  0.97955991  1
  C  C189  1  0.45188995  0.40133573  0.98759614  1
  N  N190  1  0.33089950  0.81568211  0.19003110  1
  C  C191  1  0.37140316  0.78618850  0.39377504  1
  C  C192  1  0.42014570  0.52453676  0.25831213  1
  H  H193  1  0.42725590  0.71093862  0.46610548  1
  C  C194  1  0.36526847  0.85215680  0.12223341  1
  N  N195  1  0.38325144  0.55131335  0.20078497  1
  H  H196  1  0.47645971  0.82000870  0.33626188  1
  H  H197  1  0.45714567  0.72911113  0.20389840  1
  H  H198  1  0.37048790  0.89009568  0.32141967  1
  C  C199  1  0.39335207  0.71831081  0.41067893  1
  C  C200  1  0.34442874  0.73642363  0.18047649  1
  C  C201  1  0.37230676  0.93330559  0.09875355  1
  H  H202  1  0.32596123  0.69049264  0.22797486  1
  C  C203  1  0.38942796  0.78608742  0.06682364  1
  C  C204  1  0.34427865  0.51245969  0.34530815  1
  C  C205  1  0.27807625  0.56797863  0.22561158  1
  Zn  Zn206  1  0.27301925  0.86534099  0.29669998  1
  N  N207  1  0.40268404  0.50698362  0.34838261  1
  C  C208  1  0.33305622  0.54737438  0.24961296  1
  C  C209  1  0.48319847  0.94797880  0.46710723  1
  C  C210  1  0.42071011  0.94394640  0.02826852  1
  N  N211  1  0.37773625  0.71540396  0.11022318  1
  N  N212  1  0.34896278  0.85723040  0.37169808  1
  Zn  Zn213  1  0.39775243  0.60118096  0.07023057  1
  H  H214  1  0.46334341  0.94628315  0.05974506  1
  H  H215  1  0.38349993  0.66521208  0.36609213  1
  H  H216  1  0.46519785  0.51673031  0.25058306  1
  Zn  Zn217  1  0.33575143  0.95658506  0.43989846  1
  N  N218  1  0.26319476  0.97412686  0.36278924  1
  H  H219  1  0.46305229  0.89053187  0.46989346  1
  H  H220  1  0.26451555  0.68834844  0.37116858  1
  H  H221  1  0.26225681  0.50220765  0.08422542  1
  C  C222  1  0.49522174  0.72283110  0.24181440  1
  H  H223  1  0.27125466  0.60310703  0.16406307  1
  H  H224  1  0.25969224  0.68115850  0.01649721  1
  C  C225  1  0.26048075  0.60419447  0.87074091  1
  H  H226  1  0.46751019  0.74506534  0.77064793  1
  N  N227  1  0.42853130  0.53633282  0.54876428  1
  N  N228  1  0.30278661  0.79283937  0.65184213  1
  C  C229  1  0.37753843  0.55035011  0.58899919  1
  C  C230  1  0.30096989  0.82569440  0.56599679  1
  N  N231  1  0.31460322  0.90495589  0.55980444  1
  C  C232  1  0.33418346  0.86374380  0.80442210  1
  H  H233  1  0.39995313  0.79317441  0.64662729  1
  C  C234  1  0.48814442  0.60192781  0.91408143  1
  N  N235  1  0.36761101  0.62277786  0.62207463  1
  Zn  Zn236  1  0.29411672  0.67268560  0.68146731  1
  H  H237  1  0.39026751  0.63730188  0.83461258  1
  C  C238  1  0.42661176  0.75017834  0.61198375  1
  C  C239  1  0.32177840  0.85820907  0.70540164  1
  N  N240  1  0.45640752  0.55525895  0.97419237  1
  C  C241  1  0.32674126  0.92936848  0.65034699  1
  H  H242  1  0.42541279  0.75689210  0.92847910  1
  H  H243  1  0.33141888  0.81041221  0.84888938  1
  C  C244  1  0.41526053  0.66506959  0.60344711  1
  H  H245  1  0.42616696  0.88040845  0.74691447  1
  N  N246  1  0.30179142  0.63179801  0.81049930  1
  C  C247  1  0.28758295  0.57060738  0.95760964  1
  C  C248  1  0.34685924  0.62331587  0.86049788  1
  C  C249  1  0.34405913  0.94011166  0.83713777  1
  H  H250  1  0.44620771  0.89707034  0.88338338  1
  H  H251  1  0.48450789  0.52206156  0.68410586  1
  C  C252  1  0.45661182  0.60773293  0.56102250  1
  N  N253  1  0.34096983  0.59167308  0.95026005  1
  H  H254  1  0.35266544  0.94485466  0.91287758  1
  H  H255  1  0.48585248  0.66978250  0.90957382  1
  C  C256  1  0.49211762  0.79783104  0.76643499  1
  C  C257  1  0.47079657  0.87130290  0.74625424  1
  C  C258  1  0.47861804  0.77125708  0.57605661  1
  H  H259  1  0.49638216  0.83100421  0.58868752  1
  C  C260  1  0.42796638  0.88200379  0.95165846  1
  C  C261  1  0.41686161  0.80528460  0.97760207  1
  H  H262  1  0.29176785  0.78440104  0.51124285  1
  H  H263  1  0.34614015  0.50348880  0.58284231  1
  C  C264  1  0.69195704  0.33080878  0.21903782  1
  C  C265  1  0.67045564  0.43625078  0.47197281  1
  C  C266  1  0.65615169  0.19447547  0.24686897  1
  H  H267  1  0.57234013  0.34823965  0.07182779  1
  H  H268  1  0.63376157  0.09044413  0.11872849  1
  H  H269  1  0.69518233  0.41578114  0.41277047  1
  C  C270  1  0.54420899  0.37889267  0.21076578  1
  H  H271  1  0.56156636  0.16852533  0.44364098  1
  N  N272  1  0.69437278  0.41425406  0.22120224  1
  H  H273  1  0.60998310  0.30043871  0.27926002  1
  C  C274  1  0.61433166  0.41943274  0.47586352  1
  C  C275  1  0.54563459  0.47375993  0.31928762  1
  C  C276  1  0.64817452  0.27758004  0.24627788  1
  H  H277  1  0.64839665  0.21389466  0.06375501  1
  H  H278  1  0.52409575  0.21095816  0.08260590  1
  C  C279  1  0.54764820  0.32885714  0.13105330  1
  C  C280  1  0.70913158  0.16378725  0.22219318  1
  N  N281  1  0.56613247  0.45327862  0.23248023  1
  H  H282  1  0.62471483  0.15172043  0.27694885  1
  H  H283  1  0.59157411  0.38459344  0.42035805  1
  H  H284  1  0.71483888  0.09867456  0.22604424  1
  C  C285  1  0.51892433  0.25481092  0.14009187  1
  C  C286  1  0.64549171  0.02826626  0.11216952  1
  C  C287  1  0.74986315  0.42712286  0.22354235  1
  C  C288  1  0.53897803  0.10911700  0.44838797  1
  C  C289  1  0.50954180  0.36081594  0.29377116  1
  C  C290  1  0.74942152  0.29630050  0.20941258  1
  N  N291  1  0.50888419  0.42567570  0.35691210  1
  H  H292  1  0.58622831  0.02010481  0.27877924  1
  H  H293  1  0.60949996  0.04763148  0.48672991  1
  C  C294  1  0.56589728  0.03945081  0.47221948  1
  N  N295  1  0.73462473  0.05790091  0.86811520  1
  C  C296  1  0.69681391  0.37327874  0.82113193  1
  H  H297  1  0.56929263  0.18598695  0.83275206  1
  Zn  Zn298  1  0.64920027  0.06318194  0.91562135  1
  H  H299  1  0.55405607  0.28323665  0.89223537  1
  H  H300  1  0.58859743  0.41500951  0.82532047  1
  H  H301  1  0.63933719  0.16228054  0.71900957  1
  H  H302  1  0.72926973  0.38803918  0.69205923  1
  C  C303  1  0.68087864  0.27730714  0.68741244  1
  C  C304  1  0.53262979  0.07246143  0.79193968  1
  C  C305  1  0.69768752  0.47904812  0.54650086  1
  N  N306  1  0.64681254  0.18643956  0.91807487  1
  C  C307  1  0.53448793  0.15755079  0.79846933  1
  C  C308  1  0.67282709  0.31602908  0.88020881  1
  H  H309  1  0.69001622  0.27265179  0.61044453  1
  C  C310  1  0.53034868  0.34117214  0.90141334  1
  C  C311  1  0.51528668  0.48269151  0.88177250  1
  C  C312  1  0.65546396  0.23665236  0.84170094  1
  C  C313  1  0.70032312  0.34826913  0.72690557  1
  H  H314  1  0.71330969  0.42949050  0.84945708  1
  C  C315  1  0.58261699  0.45430860  0.54899138  1
  C  C316  1  0.65568403  0.23426375  0.99266021  1
  N  N317  1  0.52753549  0.45960620  0.56775601  1
  C  C318  1  0.65641373  0.21758356  0.74479886  1
  C  C319  1  0.54913378  0.41212686  0.86563820  1
  H  H320  1  0.74138640  0.48749716  0.54262410  1
  N  N321  1  0.66749070  0.31057002  0.97356970  1
  N  N322  1  0.57636032  0.02291612  0.82650228  1
  H  H323  1  0.73487500  0.17056109  0.79380428  1
  H  H324  1  0.56494963  0.52820616  0.35011099  1
  C  C325  1  0.66333083  0.99077418  0.20292498  1
  C  C326  1  0.71661788  0.95886013  0.19095245  1
  Zn  Zn327  1  0.68747621  0.74701284  0.49139185  1
  H  H328  1  0.52698462  0.62308990  0.15100562  1
  H  H329  1  0.64253003  0.74284678  0.19968456  1
  C  C330  1  0.69472398  0.90166452  0.37071686  1
  C  C331  1  0.66749068  0.78843062  0.16279693  1
  H  H332  1  0.70483823  0.81847006  0.19170207  1
  C  C333  1  0.58272320  0.65935884  0.26105042  1
  N  N334  1  0.64568462  0.80765294  0.09025870  1
  H  H335  1  0.57066162  0.82840701  0.41016681  1
  C  C336  1  0.50817566  0.77739184  0.31302320  1
  N  N337  1  0.65507550  0.54833214  0.04813651  1
  C  C338  1  0.55772606  0.77859129  0.36283083  1
  C  C339  1  0.53939521  0.96370828  0.48589380  1
  N  N340  1  0.72064662  0.85400580  0.43090200  1
  H  H341  1  0.61494666  0.93664405  0.41543439  1
  C  C342  1  0.66332690  0.63322973  0.32635136  1
  C  C343  1  0.64127110  0.93910082  0.35643097  1
  C  C344  1  0.53237731  0.66131556  0.21200569  1
  C  C345  1  0.62542312  0.98620214  0.28330142  1
  C  C346  1  0.59774703  0.71966747  0.33534755  1
  N  N347  1  0.64910170  0.69957266  0.37093648  1
  N  N348  1  0.62811553  0.60751123  0.25960120  1
  H  H349  1  0.70263441  0.59405917  0.33716903  1
  N  N350  1  0.65163153  0.99797319  0.03086908  1
  H  H351  1  0.53848964  0.59375341  0.49269235  1
  Zn  Zn352  1  0.63638577  0.50260741  0.17412037  1
  H  H353  1  0.57634055  0.59920684  0.00865188  1
  H  H354  1  0.61229668  0.75181139  0.62080415  1
  C  C355  1  0.74471483  0.56821213  0.84193272  1
  H  H356  1  0.66266919  0.73526659  0.88070386  1
  C  C357  1  0.55252032  0.80057290  0.78890129  1
  Zn  Zn358  1  0.58320978  0.61423742  0.78099027  1
  N  N359  1  0.62887272  0.84769960  0.86863933  1
  C  C360  1  0.55859144  0.94925411  0.80326543  1
  N  N361  1  0.64394617  0.60459093  0.90257433  1
  N  N362  1  0.59084932  0.73941345  0.78731054  1
  N  N363  1  0.57126774  0.53530666  0.67883950  1
  N  N364  1  0.52340647  0.56217917  0.85977814  1
  C  C365  1  0.63051196  0.85624464  0.60559877  1
  C  C366  1  0.50974137  0.94015878  0.72575155  1
  H  H367  1  0.74068520  0.60445781  0.77695303  1
  H  H368  1  0.63449986  0.92275056  0.61657805  1
  H  H369  1  0.69817996  0.53383791  0.68060942  1
  C  C370  1  0.57699445  0.87422131  0.82755924  1
  N  N371  1  0.73131572  0.67752360  0.57781422  1
  C  C372  1  0.63171907  0.77057628  0.84327034  1
  N  N373  1  0.63552518  0.79125721  0.57906291  1
  H  H374  1  0.52806660  0.93448066  0.65728742  1
  H  H375  1  0.71222476  0.82398460  0.68842186  1
  C  C376  1  0.67197534  0.50890175  0.62533537  1
  C  C377  1  0.69763635  0.57416398  0.90184294  1
  H  H378  1  0.56224377  0.91746899  0.52589823  1
  C  C379  1  0.51801424  0.71689299  0.53558010  1
  C  C380  1  0.62377340  0.58917184  0.99037491  1
  H  H381  1  0.55934283  0.73617383  0.51860559  1
  Zn  Zn382  1  0.66585954  0.89080887  0.99354234  1
  H  H383  1  0.71872147  0.70484749  0.97780546  1
  C  C384  1  0.51067289  0.63212458  0.53182037  1
  C  C385  1  0.61248531  0.50081269  0.62404822  1
  C  C386  1  0.74706003  0.78643427  0.70707228  1
  C  C387  1  0.52451896  0.50530098  0.64903339  1
  C  C388  1  0.70467382  0.53591457  0.99186590  1
  N  N389  1  0.87841600  0.46604943  0.29325152  1
  N  N390  1  0.93705812  0.29655419  0.21891134  1
  H  H391  1  0.79592519  0.41765346  0.43381493  1
  H  H392  1  0.99737856  0.36875971  0.15167069  1
  C  C393  1  0.89541873  0.16030347  0.26371127  1
  C  C394  1  0.95229596  0.48054551  0.03880142  1
  H  H395  1  0.91701334  0.25071955  0.41906941  1
  Zn  Zn396  1  0.86837696  0.36790665  0.20372142  1
  C  C397  1  0.75715497  0.21278475  0.20600030  1
  C  C398  1  0.98562332  0.18020245  0.17523907  1
  C  C399  1  0.98715489  0.31095575  0.18075749  1
  N  N400  1  0.87967187  0.36902696  0.06202805  1
  H  H401  1  0.85882172  0.18110530  0.30344750  1
  C  C402  1  0.89462219  0.46675700  0.38579597  1
  C  C403  1  0.93681025  0.21284280  0.22754555  1
  H  H404  1  0.90930728  0.41261342  0.42436075  1
  C  C405  1  0.90253504  0.07809529  0.24691394  1
  C  C406  1  0.79746630  0.35764061  0.46653753  1
  C  C407  1  0.94786855  0.04705536  0.19591414  1
  N  N408  1  0.78316584  0.36298266  0.21421997  1
  C  C409  1  0.95478275  0.26258928  0.45739976  1
  H  H410  1  0.79776219  0.18784980  0.19874776  1
  H  H411  1  0.76407823  0.48990984  0.22078579  1
  C  C412  1  0.77430525  0.28918834  0.42889940  1
  C  C413  1  0.91811378  0.41328965  0.01326327  1
  C  C414  1  0.98917270  0.09721001  0.15722073  1
  H  H415  1  0.82354306  0.27958498  0.01851501  1
  H  H416  1  0.75363143  0.16680669  0.44811696  1
  H  H417  1  0.75378562  0.45254220  0.07730742  1
  H  H418  1  0.75715717  0.29391440  0.35858449  1
  H  H419  1  0.86833175  0.03715064  0.27180178  1
  C  C420  1  0.75146866  0.48750297  0.01343742  1
  C  C421  1  0.85487775  0.32171673  0.00194180  1
  C  C422  1  0.77611897  0.21574033  0.47706376  1
  H  H423  1  0.80715528  0.15220916  0.59862262  1
  C  C424  1  0.82465082  0.28000023  0.60666776  1
  C  C425  1  0.83273940  0.05494964  0.87801359  1
  C  C426  1  0.85561063  0.37780071  0.69279338  1
  N  N427  1  0.84670687  0.29693132  0.69317259  1
  H  H428  1  0.83341831  0.44477948  0.96272058  1
  N  N429  1  0.81621936  0.12036139  0.81971216  1
  N  N430  1  0.84317305  0.41925247  0.61502899  1
  H  H431  1  0.99619006  0.42388717  0.59435534  1
  Zn  Zn432  1  0.86591751  0.22223137  0.80560135  1
  C  C433  1  0.80138141  0.20993059  0.56319924  1
  H  H434  1  0.96359488  0.12653024  0.66289287  1
  H  H435  1  0.95440489  0.39491728  0.77837680  1
  H  H436  1  0.87017613  0.40730993  0.75454934  1
  N  N437  1  0.95136207  0.19265419  0.85558215  1
  H  H438  1  0.91422542  0.26872029  0.59718486  1
  C  C439  1  0.82218741  0.35593111  0.55663332  1
  C  C440  1  0.91474721  0.38099184  0.91628015  1
  C  C441  1  0.99359660  0.15493728  0.80725198  1
  C  C442  1  0.88503317  0.03438097  0.90846139  1
  C  C443  1  0.95253157  0.41278973  0.85202640  1
  C  C444  1  0.99969282  0.29480182  0.61006596  1
  N  N445  1  0.87517604  0.32169538  0.90961402  1
  C  C446  1  0.97548224  0.21743759  0.93847634  1
  H  H447  1  0.99655013  0.30196268  0.68812907  1
  C  C448  1  0.75982204  0.11683601  0.82082759  1
  C  C449  1  0.99939072  0.12706993  0.71532695  1
  H  H450  1  0.92244707  0.06904269  0.88568059  1
  C  C451  1  0.95380587  0.27127104  0.55798106  1
  C  C452  1  0.99533585  0.48447327  0.62502739  1
  C  C453  1  0.77958460  0.01546874  0.90286053  1
  C  C454  1  0.79505100  0.47983914  0.95044021  1
  C  C455  1  0.98954085  0.47259633  0.87861795  1
  H  H456  1  0.95509628  0.26091822  0.98491746  1
  C  C457  1  0.81360264  0.64434346  0.38667287  1
  C  C458  1  0.83014426  0.57663035  0.20125902  1
  C  C459  1  0.94223870  0.72687559  0.19176028  1
  H  H460  1  0.92529887  0.76243191  0.42893116  1
  C  C461  1  0.85106165  0.57886526  0.37449751  1
  C  C462  1  0.94581343  0.75993485  0.36049388  1
  H  H463  1  0.82857328  0.80728627  0.34072590  1
  H  H464  1  0.95293799  0.98322835  0.18590815  1
  C  C465  1  0.79900150  0.85010514  0.30601220  1
  C  C466  1  0.85284487  0.54071250  0.28228275  1
  H  H467  1  0.76805056  0.65849256  0.15740549  1
  C  C468  1  0.80499960  0.87477755  0.21633602  1
  C  C469  1  0.78438719  0.67368785  0.31016646  1
  C  C470  1  0.77046892  0.93479595  0.16805601  1
  H  H471  1  0.79185321  0.96776176  0.11202852  1
  C  C472  1  0.79030167  0.63736679  0.22023630  1
  H  H473  1  0.92009438  0.79282437  0.01955837  1
  H  H474  1  0.91668405  0.70098174  0.13364927  1
  H  H475  1  0.84392978  0.85078438  0.19049575  1
  H  H476  1  0.75818819  0.72918506  0.31703200  1
  H  H477  1  0.83915924  0.55237199  0.12895652  1
  H  H478  1  0.81477735  0.67360975  0.45613720  1
  C  C479  1  0.99720370  0.75972386  0.17835399  1
  H  H480  1  0.98448566  0.63624135  0.32555848  1
  H  H481  1  0.76195500  0.58651352  0.48750739  1
  C  C482  1  0.92147181  0.72345273  0.28147236  1
  H  H483  1  0.88178518  0.69350193  0.29457608  1
  C  C484  1  0.75017030  0.87304364  0.35753166  1
  H  H485  1  0.88978505  0.99475247  0.05877625  1
  N  N486  1  0.87925306  0.52853902  0.43863007  1
  H  H487  1  0.89099836  0.64377481  0.01385702  1
  C  C488  1  0.87860140  0.77230907  0.01574918  1
  H  H489  1  0.99780929  0.52560873  0.44967075  1
  H  H490  1  0.94980332  0.51167492  0.11014489  1
  H  H491  1  0.79144723  0.60648779  0.00470450  1
  C  C492  1  0.80388593  0.66879399  0.00870145  1
  C  C493  1  0.86016053  0.69183940  0.01597104  1
  C  C494  1  0.80710343  0.66435313  0.67262901  1
  C  C495  1  0.98024380  0.59887443  0.68657895  1
  C  C496  1  0.95816637  0.67549953  0.70797041  1
  N  N497  1  0.80865616  0.59922327  0.61109227  1
  C  C498  1  0.78786508  0.93668127  0.94385773  1
  H  H499  1  0.91931370  0.69525056  0.67465344  1
  H  H500  1  0.82505820  0.51300262  0.81467048  1
  Zn  Zn501  1  0.87442325  0.52904507  0.57684958  1
  C  C502  1  0.83697364  0.67718207  0.76078164  1
  N  N503  1  0.75016305  0.87231834  0.95344192  1
  H  H504  1  0.86466955  0.63097765  0.78812297  1
  H  H505  1  0.85608442  0.76079341  0.87061046  1
  C  C506  1  0.82904669  0.74805228  0.80762418  1
  N  N507  1  0.95573555  0.53961233  0.62870925  1
  C  C508  1  0.79193872  0.52453798  0.86619846  1
  C  C509  1  0.98616916  0.51063195  0.96635182  1
  H  H510  1  0.77788539  0.85765600  0.81522679  1
  C  C511  1  0.78499391  0.80083780  0.77759710  1
  C  C512  1  0.76093958  0.72319456  0.99051140  1
  C  C513  1  0.75921696  0.71412688  0.65314986  1
  C  C514  1  0.84012358  0.91446444  0.97627023  1
  C  C515  1  0.77877371  0.80413781  0.98240053  1
  H  H516  1  0.93164096  0.94058327  0.97217014  1
  C  C517  1  0.99239474  0.72135849  0.77014165  1
  H  H518  1  0.97807041  0.78121396  0.79741010  1
  C  C519  1  0.88999061  0.96909791  0.98122330  1
  C  C520  1  0.83646467  0.82965303  0.99596693  1
  C  C521  1  0.76295889  0.61088624  0.55943203  1
