# generated using pymatgen
data_CuH17C30NO4
_symmetry_space_group_name_H-M   'P 1'
_cell_length_a   10.55992293
_cell_length_b   34.55862826
_cell_length_c   19.31146942
_cell_angle_alpha   90.00000000
_cell_angle_beta   90.00000000
_cell_angle_gamma   90.00000000
_symmetry_Int_Tables_number   1
_chemical_formula_structural   CuH17C30NO4
_chemical_formula_sum   'Cu12 H204 C360 N12 O48'
_cell_volume   7047.45911718
_cell_formula_units_Z   12
loop_
 _symmetry_equiv_pos_site_id
 _symmetry_equiv_pos_as_xyz
  1  'x, y, z'
loop_
 _atom_site_type_symbol
 _atom_site_label
 _atom_site_symmetry_multiplicity
 _atom_site_fract_x
 _atom_site_fract_y
 _atom_site_fract_z
 _atom_site_occupancy
  C  C0  1  0.43164656  0.03390637  0.03362697  1
  C  C1  1  0.11746877  0.10036877  0.34420919  1
  O  O2  1  0.14900630  0.05377831  0.15842922  1
  H  H3  1  0.30499752  0.00988444  0.17557867  1
  C  C4  1  0.27337405  0.24932438  0.44422244  1
  H  H5  1  0.13564049  0.16556496  0.24529099  1
  C  C6  1  0.26336033  0.07609785  0.43616077  1
  C  C7  1  0.19811268  0.11065410  0.40221540  1
  C  C8  1  0.19454734  0.16289904  0.10707812  1
  C  C9  1  0.41079344  0.21034212  0.30592733  1
  C  C10  1  0.45172814  0.24958818  0.32988881  1
  C  C11  1  0.35202035  0.05026489  0.41045013  1
  H  H12  1  0.27598512  0.14841622  0.13445891  1
  H  H13  1  0.28852431  0.18136861  0.22588520  1
  C  C14  1  0.09543845  0.17374218  0.40677817  1
  C  C15  1  0.43952385  0.17689058  0.34651620  1
  H  H16  1  0.24845837  0.15489491  0.47553309  1
  C  C17  1  0.18489188  0.14774670  0.43363646  1
  H  H18  1  0.32420967  0.22196188  0.44868384  1
  C  C19  1  0.20289027  0.16510558  0.03704794  1
  H  H20  1  0.40143359  0.14841715  0.33383184  1
  C  C21  1  0.33547189  0.20860328  0.24271495  1
  C  C22  1  0.08320254  0.17979172  0.14225967  1
  H  H23  1  0.11883690  0.07011855  0.32945759  1
  H  H24  1  0.08411503  0.20256899  0.43062570  1
  H  H25  1  0.39816222  0.05447282  0.35794337  1
  H  H26  1  0.49462074  0.05853519  0.03395818  1
  H  H27  1  0.24178423  0.24270753  0.16090157  1
  H  H28  1  0.17175109  0.23465338  0.35238850  1
  C  C29  1  0.37376960  0.01814793  0.45768536  1
  C  C30  1  0.30915631  0.24169040  0.20334935  1
  C  C31  1  0.05902122  0.18037875  0.21473848  1
  H  H32  1  0.28239936  0.15427851  0.00212573  1
  C  C33  1  0.07413371  0.03381647  0.18963654  1
  C  C34  1  0.47723229  0.00058869  0.06829289  1
  C  C35  1  0.02248205  0.16386599  0.34564473  1
  C  C36  1  0.03454656  0.12742632  0.31243094  1
  C  C37  1  0.09928795  0.18373627  0.00159877  1
  C  C38  1  0.22352183  0.03976538  0.54204038  1
  C  C39  1  0.42819214  0.10897919  0.74590633  1
  H  H40  1  0.49194881  0.03496335  0.78351225  1
  O  O41  1  0.46521616  0.15192523  0.94406502  1
  C  C42  1  0.31983220  0.03083519  0.99917431  1
  C  C43  1  0.14076257  0.05693611  0.82880135  1
  H  H44  1  0.43242512  0.07036013  0.60711251  1
  C  C45  1  0.35196968  0.07899854  0.77746347  1
  C  C46  1  0.39557636  0.04165364  0.79490189  1
  O  O47  1  0.38889664  0.23646989  0.88704520  1
  H  H48  1  0.43516425  0.16289958  0.69641720  1
  Cu  Cu49  1  0.40008287  0.22784895  0.67768275  1
  H  H50  1  0.28708117  0.03687238  0.69214575  1
  O  O51  1  0.20845521  0.16558896  0.90296621  1
  C  C52  1  0.24385124  0.15161058  0.74356624  1
  C  C53  1  0.37752914  0.02268766  0.67771079  1
  C  C54  1  0.17482749  0.18625247  0.72695332  1
  Cu  Cu55  1  0.36600109  0.18449758  0.88984363  1
  C  C56  1  0.37249159  0.14252722  0.72428401  1
  C  C57  1  0.17762877  0.12382232  0.78039950  1
  O  O58  1  0.38114878  0.23821440  0.58222935  1
  C  C59  1  0.14538478  0.02858263  0.60380796  1
  O  O60  1  0.22903610  0.21085884  0.68813408  1
  C  C61  1  0.18192972  0.01952102  0.83588774  1
  C  C62  1  0.21853811  0.08553704  0.79406934  1
  C  C63  1  0.11310694  0.18233957  0.92666159  1
  Cu  Cu64  1  0.00659115  0.22570446  0.81762878  1
  H  H65  1  0.07996606  0.13101578  0.79471904  1
  H  H66  1  0.06599631  0.01939847  0.96745920  1
  H  H67  1  0.12668060  0.08927286  0.63696606  1
  C  C68  1  0.30948479  0.01175118  0.81100116  1
  C  C69  1  0.45764290  0.04069385  0.63007762  1
  C  C70  1  0.09912551  0.05902157  0.64744896  1
  O  O71  1  0.40120567  0.22331622  0.77695077  1
  O  O72  1  0.06181051  0.19032033  0.75075709  1
  H  H73  1  0.27774587  0.05357087  0.97029683  1
  C  C74  1  0.01430455  0.04876766  0.69793361  1
  C  C75  1  0.41808558  0.24633838  0.82433792  1
  O  O76  1  0.01589242  0.19312271  0.89097979  1
  C  C77  1  0.31358328  0.01148836  0.52203651  1
  H  H78  1  0.10998502  0.09122592  0.51340761  1
  H  H79  1  0.04719743  0.06375255  0.85127962  1
  C  C80  1  0.19376318  0.07262660  0.50003208  1
  H  H81  1  0.29817943  0.24849163  0.98575606  1
  C  C82  1  0.40984727  0.45712675  0.31308188  1
  C  C83  1  0.33825623  0.46246925  0.03618781  1
  C  C84  1  0.31537244  0.31634318  0.11553531  1
  O  O85  1  0.16630343  0.47654444  0.18039331  1
  C  C86  1  0.26621973  0.34886645  0.08071685  1
  C  C87  1  0.06092632  0.30392176  0.32072836  1
  O  O88  1  0.14778537  0.41318066  0.19401503  1
  C  C89  1  0.12769362  0.36581144  0.42208593  1
  C  C90  1  0.13720340  0.29528877  0.37825384  1
  C  C91  1  0.04919709  0.44540393  0.09283101  1
  H  H92  1  0.24778515  0.33429212  0.31018811  1
  H  H93  1  0.17369895  0.38923643  0.45406499  1
  H  H94  1  0.27114042  0.39811299  0.36515407  1
  H  H95  1  0.41016201  0.41606074  0.09704174  1
  H  H96  1  0.46617396  0.37604151  0.12666347  1
  C  C97  1  0.36698467  0.34861223  0.21915421  1
  H  H98  1  0.13102483  0.28923694  0.09567378  1
  H  H99  1  0.17936823  0.40739311  0.00164755  1
  H  H100  1  0.37365221  0.25513320  0.10079569  1
  C  C101  1  0.33505536  0.28063729  0.07523459  1
  C  C102  1  0.31028118  0.35527044  0.28613900  1
  C  C103  1  0.00479431  0.34112818  0.32300144  1
  C  C104  1  0.36026475  0.27906180  0.22481105  1
  H  H105  1  0.25389323  0.37649041  0.10772542  1
  N  N106  1  0.34265025  0.31332457  0.18634717  1
  C  C107  1  0.43068805  0.37867697  0.18123891  1
  C  C108  1  0.17166941  0.32623354  0.42874237  1
  H  H109  1  0.05819519  0.33221667  0.19807148  1
  C  C110  1  0.32413291  0.39086307  0.31762330  1
  C  C111  1  0.40405668  0.41944316  0.28347165  1
  C  C112  1  0.01248988  0.27979084  0.00981791  1
  C  C113  1  0.43418019  0.44123561  0.06553800  1
  C  C114  1  0.42862746  0.28264519  0.28785035  1
  C  C115  1  0.46460992  0.41231834  0.21587936  1
  H  H116  1  0.20844324  0.42242529  0.23245288  1
  H  H117  1  0.23695764  0.45631956  0.04049754  1
  C  C118  1  0.23014958  0.34719023  0.00928107  1
  C  C119  1  0.03657819  0.29145940  0.07446480  1
  C  C120  1  0.12737179  0.44763047  0.15613390  1
  C  C121  1  0.00733652  0.47937765  0.05891626  1
  C  C122  1  0.20017234  0.25896772  0.38964993  1
  H  H123  1  0.04468460  0.28183309  0.28288425  1
  C  C124  1  0.28587174  0.27660631  0.01028518  1
  C  C125  1  0.23530182  0.31544605  0.48892758  1
  H  H126  1  0.06355321  0.38385469  0.09276486  1
  C  C127  1  0.04289246  0.37295818  0.36815604  1
  C  C128  1  0.01247460  0.40806797  0.07075146  1
  C  C129  1  0.37412474  0.49782051  0.00171145  1
  H  H130  1  0.45132960  0.31226152  0.30484979  1
  H  H131  1  0.00237342  0.40248602  0.36402789  1
  C  C132  1  0.42215295  0.49073795  0.33334915  1
  C  C133  1  0.29180361  0.27884685  0.49422786  1
  C  C134  1  0.31034444  0.42436470  0.78341421  1
  Cu  Cu135  1  0.28632246  0.30090398  0.68833898  1
  C  C136  1  0.35337017  0.27196433  0.56083246  1
  C  C137  1  0.17544635  0.34138705  0.87022336  1
  H  H138  1  0.46668594  0.36763923  0.97892695  1
  C  C139  1  0.14987784  0.33790257  0.79224886  1
  O  O140  1  0.36312624  0.30039704  0.60309055  1
  O  O141  1  0.13416743  0.36655621  0.75927965  1
  H  H142  1  0.35517554  0.39711083  0.68128799  1
  O  O143  1  0.17112188  0.30499671  0.75974416  1
  C  C144  1  0.20919137  0.30660565  0.90142804  1
  O  O145  1  0.27111264  0.41305368  0.56702275  1
  H  H146  1  0.37527769  0.40865414  0.81648691  1
  C  C147  1  0.15060255  0.37681326  0.90256711  1
  C  C148  1  0.22342311  0.44563613  0.67260798  1
  H  H149  1  0.24261354  0.33778775  0.53077819  1
  H  H150  1  0.11541877  0.40196987  0.87232069  1
  C  C151  1  0.27447679  0.46832091  0.88242555  1
  H  H152  1  0.34252635  0.45256849  0.91814642  1
  C  C153  1  0.24528823  0.45606823  0.81481972  1
  C  C154  1  0.23683945  0.30975919  0.97252332  1
  H  H155  1  0.21403176  0.27851720  0.87262388  1
  C  C156  1  0.15836130  0.48218041  0.77310846  1
  H  H157  1  0.44136712  0.29782163  0.92543042  1
  C  C158  1  0.22630124  0.44193345  0.59329630  1
  H  H159  1  0.46179133  0.47192855  0.76543739  1
  O  O160  1  0.18509935  0.46910181  0.55850965  1
  H  H161  1  0.09051530  0.26491944  0.98008585  1
  C  C162  1  0.30449741  0.42150543  0.71012391  1
  C  C163  1  0.14045623  0.47292594  0.70286419  1
  C  C164  1  0.46992245  0.30955755  0.87702920  1
  C  C165  1  0.46523161  0.28640353  0.81782013  1
  H  H166  1  0.45939652  0.49091826  0.63955265  1
  C  C167  1  0.18280297  0.37996991  0.97228947  1
  H  H168  1  0.07610797  0.48953999  0.66875817  1
  C  C169  1  0.49977261  0.37606545  0.92546707  1
  C  C170  1  0.31522196  0.65583426  0.35413066  1
  C  C171  1  0.40204482  0.66250894  0.41158552  1
  C  C172  1  0.44203952  0.70139832  0.43013700  1
  C  C173  1  0.12630295  0.70916211  0.03791194  1
  C  C174  1  0.08022136  0.73752791  0.08239142  1
  H  H175  1  0.18059117  0.68505073  0.28384221  1
  C  C176  1  0.03773311  0.72665301  0.14931053  1
  H  H177  1  0.08357583  0.59629835  0.03156373  1
  H  H178  1  0.30143365  0.63158531  0.09887055  1
  C  C179  1  0.32211058  0.61747823  0.04905261  1
  C  C180  1  0.09487752  0.65547634  0.12027822  1
  C  C181  1  0.28619074  0.58044403  0.03746145  1
  C  C182  1  0.25597029  0.68771631  0.32496485  1
  H  H183  1  0.25278340  0.56115461  0.07923743  1
  H  H184  1  0.28444665  0.62631453  0.34091645  1
  C  C185  1  0.29701496  0.72723801  0.33879091  1
  C  C186  1  0.03729577  0.68444407  0.16469541  1
  H  H187  1  0.43950000  0.69166080  0.05100373  1
  C  C188  1  0.12413497  0.66956471  0.05576627  1
  H  H189  1  0.15892207  0.64940258  0.01657749  1
  H  H190  1  0.49916388  0.70612133  0.47620061  1
  H  H191  1  0.09715852  0.62375889  0.13073024  1
  H  H192  1  0.05827187  0.73638932  0.37739334  1
  C  C193  1  0.44896582  0.52910788  0.35077247  1
  C  C194  1  0.38530102  0.73367734  0.39924729  1
  C  C195  1  0.45190723  0.62837110  0.44748409  1
  H  H196  1  0.04155985  0.50682787  0.07807366  1
  H  H197  1  0.44300833  0.53677891  0.40700494  1
  C  C198  1  0.45047877  0.67595273  0.00309362  1
  O  O199  1  0.49231716  0.60287656  0.47977904  1
  H  H200  1  0.03506246  0.53551369  0.76842407  1
  C  C201  1  0.14120574  0.52816232  0.86585317  1
  O  O202  1  0.12830366  0.64754134  0.80301814  1
  H  H203  1  0.35120428  0.57075063  0.86094588  1
  H  H204  1  0.14582547  0.61781509  0.91661417  1
  Cu  Cu205  1  0.23697747  0.68836841  0.83150438  1
  H  H206  1  0.46650734  0.62294201  0.81929170  1
  O  O207  1  0.32846086  0.73527604  0.83970152  1
  Cu  Cu208  1  0.48303286  0.73748435  0.84734777  1
  C  C209  1  0.17456372  0.71709958  0.96750331  1
  C  C210  1  0.34536472  0.58295338  0.91484634  1
  C  C211  1  0.39264762  0.62116093  0.92407531  1
  C  C212  1  0.46182346  0.63987960  0.86734122  1
  N  N213  1  0.29058570  0.52024537  0.96317449  1
  C  C214  1  0.10004214  0.51776072  0.80136244  1
  C  C215  1  0.00952442  0.64336538  0.80693961  1
  O  O216  1  0.20402620  0.69055904  0.92645805  1
  C  C217  1  0.00990510  0.60272156  0.98916832  1
  C  C218  1  0.04357100  0.61436349  0.92420265  1
  H  H219  1  0.10832618  0.55502472  0.89121352  1
  C  C220  1  0.30088218  0.56144428  0.96947775  1
  C  C221  1  0.23212622  0.50493235  0.90423108  1
  H  H222  1  0.30968599  0.73501673  0.52229052  1
  C  C223  1  0.45638639  0.71581479  0.59090448  1
  C  C224  1  0.37979187  0.74383922  0.55943846  1
  H  H225  1  0.45057549  0.68595137  0.57330398  1
  C  C226  1  0.38587155  0.63914859  0.99432362  1
  O  O227  1  0.43624571  0.94452433  0.21992253  1
  C  C228  1  0.34469318  0.95696343  0.39982463  1
  C  C229  1  0.09782444  0.93280818  0.27174356  1
  C  C230  1  0.32088853  0.95420686  0.23045644  1
  H  H231  1  0.33565226  0.79196987  0.06066207  1
  C  C232  1  0.43411592  0.97951530  0.44072857  1
  N  N233  1  0.23191749  0.82593131  0.28018416  1
  C  C234  1  0.20520922  0.86246885  0.30861428  1
  H  H235  1  0.03761063  0.86457030  0.21685488  1
  C  C236  1  0.11492772  0.92281945  0.02596496  1
  C  C237  1  0.09508246  0.84533331  0.18456846  1
  C  C238  1  0.13151960  0.99463877  0.21387072  1
  C  C239  1  0.07083631  0.84739721  0.11333866  1
  C  C240  1  0.23385925  0.92634490  0.26031954  1
  H  H241  1  0.47504071  0.77775806  0.46556217  1
  C  C242  1  0.19828074  0.82136402  0.20999682  1
  C  C243  1  0.05038355  0.96780066  0.24443274  1
  C  C244  1  0.41704218  0.77300877  0.41807736  1
  H  H245  1  0.36513543  0.78563569  0.18870732  1
  C  C246  1  0.36851618  0.80139890  0.37493556  1
  H  H247  1  0.38792252  0.88621208  0.27030012  1
  C  C248  1  0.30124984  0.92284942  0.42820806  1
  H  H249  1  0.13347728  0.94627427  0.49624842  1
  C  C250  1  0.28839721  0.80161786  0.16705704  1
  H  H251  1  0.40033946  0.83206936  0.38296414  1
  C  C252  1  0.15824582  0.82587160  0.06904825  1
  H  H253  1  0.27315752  0.89681879  0.07322841  1
  H  H254  1  0.22911131  0.90843069  0.39806297  1
  C  C255  1  0.30658992  0.95987226  0.03868753  1
  C  C256  1  0.42934782  0.96216495  0.06457118  1
  C  C257  1  0.28855443  0.79530233  0.31534172  1
  C  C258  1  0.28607921  0.89097909  0.27929413  1
  H  H259  1  0.18258126  0.75195498  0.25869654  1
  C  C260  1  0.23963094  0.92252860  0.04590890  1
  H  H261  1  0.30102508  0.96998519  0.35176769  1
  C  C262  1  0.26707572  0.80630999  0.09723876  1
  H  H263  1  0.47761458  0.93849612  0.08958513  1
  H  H264  1  0.08668312  0.76941352  0.06427905  1
  C  C265  1  0.07693863  0.87036612  0.33227362  1
  C  C266  1  0.25886560  0.98855439  0.20658735  1
  C  C267  1  0.02769030  0.90583374  0.31526329  1
  C  C268  1  0.35241080  0.91003917  0.49353567  1
  H  H269  1  0.06335117  0.89589252  0.02831774  1
  H  H270  1  0.28205083  0.80476054  0.49702806  1
  H  H271  1  0.01767993  0.84943411  0.35999874  1
  C  C272  1  0.09163882  0.91690941  0.49682682  1
  C  C273  1  0.24473630  0.75698253  0.30279234  1
  H  H274  1  0.17087187  0.75633316  0.48659323  1
  C  C275  1  0.24675071  0.99603068  0.00833586  1
  C  C276  1  0.05142554  0.95806842  0.00086737  1
  H  H277  1  0.28323929  0.95600694  0.89099699  1
  C  C278  1  0.14803756  0.82854436  0.99420492  1
  C  C279  1  0.21991012  0.89866271  0.87922206  1
  C  C280  1  0.25471572  0.93341736  0.85391560  1
  H  H281  1  0.32782969  0.98559031  0.55849072  1
  H  H282  1  0.18842220  0.77054079  0.61044569  1
  Cu  Cu283  1  0.22779479  0.75643230  0.78564768  1
  H  H284  1  0.04508252  0.93877686  0.77747668  1
  C  C285  1  0.27338747  0.94320777  0.78048766  1
  C  C286  1  0.24656089  0.91287614  0.73255804  1
  H  H287  1  0.19286405  0.89391880  0.93263880  1
  C  C288  1  0.09846101  0.76265589  0.58581914  1
  C  C289  1  0.32611656  0.81362509  0.54584854  1
  O  O290  1  0.39839201  0.81360101  0.85607545  1
  H  H291  1  0.07546577  0.81464109  0.83252935  1
  H  H292  1  0.40946863  0.87636803  0.85311764  1
  H  H293  1  0.26768355  0.91546474  0.67804879  1
  O  O294  1  0.11102235  0.77623823  0.72131295  1
  H  H295  1  0.16292461  0.85646273  0.71632113  1
  C  C296  1  0.12308471  0.83565544  0.85955863  1
  C  C297  1  0.33489873  0.85276743  0.57062514  1
  C  C298  1  0.39465067  0.78391040  0.57847103  1
  C  C299  1  0.19578434  0.87758321  0.75564690  1
  C  C300  1  0.06270295  0.85065191  0.53169105  1
  C  C301  1  0.17448855  0.87036267  0.82760343  1
  C  C302  1  0.08491262  0.75637504  0.51598712  1
  C  C303  1  0.14004644  0.83282440  0.93130396  1
  C  C304  1  0.14936376  0.88281367  0.52076873  1
  Cu  Cu305  1  0.30096286  0.77828818  0.89965535  1
  H  H306  1  0.14635810  0.96668424  0.57804801  1
  N  N307  1  0.32607954  0.97887171  0.76794731  1
  O  O308  1  0.18164129  0.75289591  0.95362442  1
  C  C309  1  0.11688821  0.98816906  0.61316288  1
  C  C310  1  0.11487125  0.99337736  0.99020030  1
  C  C311  1  0.41709412  0.86089959  0.62905333  1
  H  H312  1  0.09350181  0.82812389  0.56600274  1
  N  N313  1  0.28199505  0.88225625  0.53042158  1
  C  C314  1  0.03971507  0.97860238  0.66909004  1
  H  H315  1  0.11976180  0.99653878  0.85356443  1
  C  C316  1  0.40533781  0.98608618  0.70982790  1
  C  C317  1  0.00753540  0.76271216  0.69928623  1
  H  H318  1  0.41853052  0.89274650  0.64520262  1
  H  H319  1  0.01358981  0.94747813  0.67431945  1
  C  C320  1  0.48684745  0.83234181  0.66283395  1
  H  H321  1  0.00551083  0.89814370  0.91281372  1
  C  C322  1  0.48594884  0.79396766  0.63443335  1
  H  H323  1  0.49716828  0.94509137  0.84794572  1
  C  C324  1  0.46296322  0.92840784  0.52466445  1
  C  C325  1  0.87214931  0.20277010  0.43143247  1
  H  H326  1  0.89301978  0.17275092  0.43610337  1
  O  O327  1  0.65376645  0.03536249  0.12078994  1
  C  C328  1  0.78258621  0.13033389  0.02263117  1
  H  H329  1  0.81527198  0.15872094  0.04316429  1
  C  C330  1  0.99435249  0.20035861  0.03264455  1
  N  N331  1  0.94814908  0.19475047  0.31935743  1
  C  C332  1  0.53734661  0.14764265  0.44625874  1
  C  C333  1  0.86048693  0.21913069  0.20716335  1
  C  C334  1  0.56163926  0.22131183  0.42779956  1
  H  H335  1  0.94060821  0.10149927  0.06213518  1
  Cu  Cu336  1  0.81379659  0.03509431  0.15687633  1
  C  C337  1  0.87431420  0.21955748  0.13712951  1
  C  C338  1  0.96184197  0.19956287  0.24763534  1
  C  C339  1  0.83886241  0.22667162  0.48627615  1
  C  C340  1  0.86943831  0.21640868  0.36237033  1
  O  O341  1  0.96176217  0.04440061  0.20767192  1
  H  H342  1  0.78368489  0.23488594  0.23093417  1
  C  C343  1  0.85045602  0.03152423  0.48727998  1
  O  O344  1  0.91548655  0.04436642  0.44404167  1
  C  C345  1  0.85334769  0.09737789  0.03154088  1
  H  H346  1  0.96718877  0.12122499  0.26774710  1
  H  H347  1  0.80674861  0.23436104  0.10365066  1
  H  H348  1  0.98331628  0.02680925  0.04410743  1
  C  C349  1  0.98236065  0.20012504  0.10494331  1
  H  H350  1  0.61945691  0.22340675  0.47632436  1
  C  C351  1  0.89930275  0.02470183  0.01192801  1
  C  C352  1  0.59588224  0.00540819  0.10752044  1
  O  O353  1  0.59730362  0.18913360  0.00250958  1
  C  C354  1  0.82479027  0.05879964  0.00630285  1
  C  C355  1  0.51391806  0.18294164  0.40642400  1
  O  O356  1  0.55341647  0.11835957  0.47622695  1
  C  C357  1  0.84034894  0.23866842  0.61220364  1
  H  H358  1  0.75736837  0.03468575  0.65877296  1
  O  O359  1  0.70239988  0.22961762  0.77054989  1
  C  C360  1  0.57089777  0.01985451  0.60924355  1
  H  H361  1  0.83753171  0.03830298  0.88167032  1
  C  C362  1  0.79497532  0.09494284  0.83772488  1
  H  H363  1  0.73582048  0.17087980  0.82069375  1
  C  C364  1  0.80923995  0.05475782  0.83569480  1
  C  C365  1  0.67587593  0.17088201  0.71546683  1
  C  C366  1  0.72730190  0.15334129  0.77479348  1
  H  H367  1  0.87392462  0.18356267  0.56858629  1
  C  C368  1  0.80136126  0.03396115  0.77007191  1
  H  H369  1  0.64184750  0.09485732  0.60608493  1
  H  H370  1  0.81054771  0.11287595  0.88529240  1
  C  C371  1  0.64912155  0.14842219  0.65724287  1
  H  H372  1  0.96578466  0.07375252  0.72425975  1
  H  H373  1  0.53493736  0.08629818  0.93729750  1
  C  C374  1  0.65220741  0.21236832  0.72015270  1
  C  C375  1  0.72590125  0.08988156  0.71049608  1
  C  C376  1  0.67358602  0.10919287  0.65256288  1
  O  O377  1  0.58488792  0.22811329  0.67366055  1
  H  H378  1  0.84211923  0.22589859  0.66421108  1
  C  C379  1  0.85389930  0.21380812  0.55575609  1
  C  C380  1  0.65270657  0.03619421  0.55871135  1
  C  C381  1  0.76218486  0.05095141  0.70787613  1
  H  H382  1  0.56376714  0.01843051  0.91329115  1
  C  C383  1  0.74931593  0.11300543  0.77478463  1
  C  C384  1  0.62720486  0.08865652  0.96319102  1
  C  C385  1  0.65127219  0.01754744  0.94329425  1
  H  H386  1  0.60673054  0.16368668  0.61177469  1
  C  C387  1  0.76758221  0.01690788  0.54067136  1
  H  H388  1  0.93060935  0.21514491  0.99979117  1
  H  H389  1  0.52981495  0.10509239  0.73315004  1
  H  H390  1  0.61957327  0.06519528  0.53948241  1
  C  C391  1  0.70144389  0.05478452  0.96962603  1
  C  C392  1  0.66422913  0.12540700  0.98797761  1
  C  C393  1  0.57184965  0.15716465  0.97754745  1
  N  N394  1  0.88374475  0.00218699  0.75665197  1
  C  C395  1  0.98248878  0.00943947  0.71005614  1
  H  H396  1  0.80309561  0.39056722  0.10395580  1
  H  H397  1  0.89795965  0.34600967  0.42352685  1
  O  O398  1  0.58302956  0.30804927  0.10985920  1
  H  H399  1  0.84451648  0.40370473  0.49243998  1
  C  C400  1  0.69936538  0.31606242  0.13758332  1
  H  H401  1  0.65805484  0.33842145  0.24191205  1
  C  C402  1  0.56546480  0.45522673  0.06890908  1
  H  H403  1  0.60634756  0.44937251  0.31707859  1
  C  C404  1  0.72932735  0.33030944  0.20331940  1
  C  C405  1  0.70969083  0.47021610  0.44878466  1
  H  H406  1  0.74338402  0.30928331  0.39479937  1
  H  H407  1  0.57597606  0.28262558  0.40418864  1
  N  N408  1  0.88837252  0.34913274  0.28941324  1
  H  H409  1  0.66500994  0.39165817  0.25383280  1
  C  C410  1  0.66868178  0.43517394  0.09959735  1
  C  C411  1  0.78780136  0.28104516  0.40633407  1
  C  C412  1  0.80394528  0.37149169  0.32832036  1
  C  C413  1  0.93809208  0.30664940  0.11720799  1
  C  C414  1  0.93481337  0.40140927  0.01567136  1
  C  C415  1  0.78815070  0.29714312  0.02169517  1
  C  C416  1  0.83905421  0.36902911  0.40177900  1
  C  C417  1  0.80662813  0.30604778  0.09067460  1
  C  C418  1  0.80645043  0.26874871  0.47681851  1
  C  C419  1  0.67166212  0.42932087  0.34277417  1
  C  C420  1  0.73123490  0.43249934  0.40936698  1
  C  C421  1  0.60121669  0.49084471  0.03128257  1
  C  C422  1  0.76714877  0.41671652  0.12985520  1
  C  C423  1  0.80201889  0.40107687  0.44059865  1
  C  C424  1  0.53716269  0.25419661  0.38836289  1
  C  C425  1  0.70798351  0.39741046  0.30383925  1
  C  C426  1  0.85926951  0.33388412  0.22322504  1
  C  C427  1  0.96498748  0.32474614  0.18073333  1
  H  H428  1  0.52759648  0.31840923  0.14670192  1
  H  H429  1  0.91097779  0.41300026  0.22308727  1
  C  C430  1  0.83512803  0.43003597  0.19555336  1
  H  H431  1  0.53446359  0.43371654  0.19287884  1
  H  H432  1  0.79608233  0.26319255  0.29767555  1
  O  O433  1  0.83089595  0.46011745  0.22536629  1
  H  H434  1  0.74800269  0.49992626  0.35391005  1
  C  C435  1  0.81896511  0.25509022  0.35144557  1
  O  O436  1  0.83780382  0.29034919  0.71870126  1
  C  C437  1  0.50714887  0.30035971  0.75256031  1
  Cu  Cu438  1  0.71400246  0.28530292  0.78567220  1
  C  C439  1  0.66876543  0.47686945  0.77356606  1
  C  C440  1  0.53885008  0.41414573  0.91115663  1
  C  C441  1  0.54587948  0.48110526  0.73963209  1
  C  C442  1  0.60633733  0.39985769  0.78779668  1
  N  N443  1  0.67338917  0.45765462  0.83578236  1
  O  O444  1  0.95716548  0.26471353  0.87229610  1
  O  O445  1  0.78007920  0.33794715  0.64769177  1
  H  H446  1  0.64653117  0.41177082  0.73777413  1
  H  H447  1  0.53192030  0.43691913  0.95101573  1
  C  C448  1  0.88884008  0.28374212  0.98118178  1
  H  H449  1  0.75991577  0.40505986  0.90937678  1
  C  C450  1  0.59259824  0.42444196  0.84462880  1
  C  C451  1  0.54482181  0.33906995  0.73811539  1
  H  H452  1  0.65588376  0.43987212  0.54710195  1
  C  C453  1  0.86282704  0.27476904  0.90940850  1
  H  H454  1  0.57923161  0.34698069  0.68689099  1
  C  C455  1  0.67190670  0.46828282  0.52002445  1
  C  C456  1  0.75938142  0.46613427  0.88829788  1
  O  O457  1  0.75349637  0.27833208  0.88196350  1
  C  C458  1  0.79450228  0.43289122  0.92624487  1
  C  C459  1  0.51342602  0.34823901  0.87189447  1
  C  C460  1  0.88483489  0.43379557  0.97775243  1
  C  C461  1  0.54906222  0.36340287  0.79854979  1
  C  C462  1  0.81329036  0.30506537  0.65732403  1
  C  C463  1  0.82109727  0.27851207  0.59856006  1
  C  C464  1  0.78941701  0.29349864  0.53325951  1
  H  H465  1  0.50464341  0.28170000  0.70768750  1
  H  H466  1  0.75937448  0.32457674  0.52852705  1
  H  H467  1  0.86772457  0.48366822  0.77137581  1
  C  C468  1  0.78553998  0.48595369  0.73746553  1
  H  H469  1  0.69616209  0.30044394  0.99613306  1
  C  C470  1  0.54963301  0.48999444  0.67041268  1
  C  C471  1  0.78118681  0.49513167  0.66840718  1
  C  C472  1  0.66649559  0.49723715  0.63401890  1
  H  H473  1  0.92054449  0.37275768  0.99344991  1
  C  C474  1  0.93395707  0.47315977  0.99894743  1
  C  C475  1  0.76846811  0.57755474  0.41390854  1
  C  C476  1  0.57647107  0.55647172  0.17328477  1
  H  H477  1  0.84382683  0.71925818  0.03486082  1
  C  C478  1  0.72066041  0.54075801  0.44703260  1
  H  H479  1  0.76334537  0.55816051  0.30649031  1
  C  C480  1  0.92701927  0.69792353  0.27325533  1
  C  C481  1  0.97193704  0.73458081  0.41088876  1
  H  H482  1  0.76516817  0.65259017  0.03915709  1
  C  C483  1  0.74058575  0.73623941  0.13023283  1
  H  H484  1  0.59596420  0.54291706  0.12500451  1
  C  C485  1  0.59739295  0.61233641  0.26283980  1
  H  H486  1  0.87035153  0.66556207  0.47178518  1
  N  N487  1  0.66727795  0.61884002  0.14256076  1
  C  C488  1  0.82841021  0.61701209  0.31359608  1
  H  H489  1  0.63256995  0.64235914  0.27436194  1
  C  C490  1  0.78765202  0.70908165  0.07800281  1
  C  C491  1  0.78352584  0.58182621  0.34116615  1
  C  C492  1  0.54299683  0.58929471  0.31358778  1
  C  C493  1  0.92076319  0.73820431  0.25776830  1
  C  C494  1  0.80311772  0.60780046  0.45947279  1
  H  H495  1  0.53442344  0.60075215  0.36693596  1
  C  C496  1  0.66384821  0.72352332  0.19094665  1
  C  C497  1  0.50391703  0.55101232  0.29588412  1
  C  C498  1  0.69993970  0.59784827  0.08239846  1
  H  H499  1  0.51008641  0.59600178  0.03903883  1
  C  C500  1  0.86098380  0.71419685  0.39011063  1
  C  C501  1  0.87473052  0.60048166  0.00458221  1
  C  C502  1  0.61908161  0.59582035  0.19481450  1
  C  C503  1  0.74832740  0.67127806  0.08434911  1
  C  C504  1  0.62936619  0.68462007  0.19494797  1
  C  C505  1  0.67182547  0.65891591  0.14286328  1
  C  C506  1  0.85685183  0.64897378  0.35954687  1
  C  C507  1  0.72725655  0.50402835  0.41030264  1
  C  C508  1  0.74650270  0.72659285  0.49685374  1
  C  C509  1  0.83380311  0.59733193  0.07446360  1
  C  C510  1  0.97506555  0.74368033  0.48035661  1
  H  H511  1  0.65735598  0.70352907  0.40666584  1
  C  C512  1  0.74050944  0.71509937  0.42869404  1
  N  N513  1  0.87929897  0.68633343  0.33738291  1
  H  H514  1  0.83546507  0.62521580  0.25836259  1
  H  H515  1  0.90054117  0.59855385  0.11682544  1
  C  C516  1  0.84983835  0.64240083  0.43352939  1
  H  H517  1  0.56787286  0.67400332  0.23543173  1
  C  C518  1  0.61229872  0.59383738  0.02608407  1
  C  C519  1  0.98224716  0.67048389  0.22754439  1
  H  H520  1  0.50027415  0.50352778  0.21753211  1
  C  C521  1  0.52219022  0.53491828  0.22531587  1
  C  C522  1  0.50299174  0.51181345  0.00130275  1
  H  H523  1  0.56324184  0.73556045  0.29263363  1
  H  H524  1  0.96480796  0.63999434  0.23737478  1
  C  C525  1  0.61576145  0.74733631  0.24764748  1
  H  H526  1  0.70108976  0.50187159  0.03372384  1
  H  H527  1  0.76280251  0.62461779  0.83847886  1
  O  O528  1  0.60903931  0.66080258  0.65065309  1
  H  H529  1  0.65619183  0.72557666  0.52924533  1
  C  C530  1  0.59350508  0.72736615  0.96584807  1
  H  H531  1  0.86956084  0.50067991  0.63929810  1
  H  H532  1  0.69687722  0.56703550  0.54731001  1
  C  C533  1  0.86871722  0.74980756  0.59711096  1
  C  C534  1  0.78395234  0.60472352  0.94387097  1
  C  C535  1  0.52045834  0.69041664  0.94645354  1
  O  O536  1  0.93423318  0.65167449  0.75766904  1
  C  C537  1  0.53239822  0.67221339  0.87885340  1
  H  H538  1  0.78998299  0.60603694  0.51578930  1
  C  C539  1  0.61462647  0.69216172  0.67428666  1
  Cu  Cu540  1  0.84545153  0.69756638  0.73566418  1
  H  H541  1  0.78439414  0.52567032  0.87724682  1
  H  H542  1  0.58418967  0.59481202  0.91212402  1
  C  C543  1  0.81362370  0.50304901  0.90739667  1
  C  C544  1  0.54013933  0.72604532  0.64403640  1
  O  O545  1  0.67221255  0.69776263  0.73401375  1
  C  C546  1  0.65446698  0.59548339  0.95773127  1
  C  C547  1  0.82997377  0.61721267  0.87912164  1
  H  H548  1  0.58599839  0.68764679  0.83777934  1
  C  C549  1  0.95818457  0.62459156  0.86825496  1
  C  C550  1  0.69214858  0.54027826  0.51879379  1
  C  C551  1  0.89553761  0.50728784  0.96235640  1
  C  C552  1  0.67186220  0.50421064  0.55517277  1
  O  O553  1  0.73111327  0.74067909  0.93271523  1
  H  H554  1  0.53027414  0.53766332  0.97203935  1
  H  H555  1  0.93170914  0.53648050  0.97725831  1
  C  C556  1  0.86043651  0.74253891  0.52725652  1
  H  H557  1  0.78516690  0.74663613  0.63042702  1
  O  O558  1  0.92547827  0.74859863  0.74009446  1
  C  C559  1  0.73086588  0.91481229  0.01182091  1
  H  H560  1  0.98075990  0.78365046  0.18985242  1
  C  C561  1  0.92440908  0.95222538  0.44112868  1
  O  O562  1  0.54914359  0.89247168  0.35788907  1
  H  H563  1  0.62609595  0.80842948  0.27810150  1
  H  H564  1  0.76726383  0.97852055  0.38453594  1
  H  H565  1  0.81224902  0.78730309  0.07199270  1
  H  H566  1  0.93672693  0.91408476  0.33487153  1
  Cu  Cu567  1  0.59508679  0.96679310  0.23734867  1
  H  H568  1  0.72462346  0.85307897  0.41974195  1
  H  H569  1  0.94990841  0.97495102  0.25109431  1
  H  H570  1  0.58683874  0.87378095  0.03751020  1
  C  C571  1  0.51345246  0.96105842  0.49384512  1
  O  O572  1  0.62669352  0.97455671  0.14174080  1
  C  C573  1  0.76634726  0.83812608  0.17380829  1
  C  C574  1  0.97953958  0.75278209  0.19912241  1
  C  C575  1  0.61949316  0.91881156  0.36109357  1
  O  O576  1  0.60605124  0.95134492  0.32666760  1
  C  C577  1  0.80963083  0.95092780  0.40755703  1
  C  C578  1  0.72528499  0.79860500  0.17857757  1
  C  C579  1  0.89334924  0.87851013  0.46262821  1
  C  C580  1  0.75970153  0.77573510  0.12095914  1
  H  H581  1  0.68282620  0.93876091  0.04055745  1
  C  C582  1  0.77773790  0.88008725  0.42605279  1
  C  C583  1  0.74540974  0.91590043  0.39909894  1
  H  H584  1  0.99145608  0.86615843  0.09710823  1
  H  H585  1  0.53216787  0.82328012  0.01819980  1
  C  C586  1  0.65131380  0.78541537  0.23985827  1
  O  O587  1  0.79845725  0.86976953  0.17311415  1
  C  C588  1  0.96667303  0.91616644  0.47031070  1
  H  H589  1  0.97339382  0.97946962  0.44279204  1
  H  H590  1  0.86146530  0.75672544  0.29090557  1
  C  C591  1  0.67899671  0.87881716  0.00960877  1
  C  C592  1  0.95042265  0.84450147  0.49364220  1
  H  H593  1  0.90114723  0.81677179  0.49892510  1
  C  C594  1  0.86768203  0.85390909  0.94705628  1
  C  C595  1  0.72472545  0.98596993  0.94815622  1
  C  C596  1  0.68858612  0.92176652  0.81303841  1
  H  H597  1  0.96670164  0.87109072  0.78481116  1
  C  C598  1  0.56316963  0.76416465  0.66258212  1
  C  C599  1  0.76271981  0.88763965  0.79285891  1
  C  C600  1  0.76212115  0.77526985  0.93889230  1
  C  C601  1  0.91637760  0.89090433  0.94392578  1
  C  C602  1  0.70926987  0.85029061  0.79758414  1
  C  C603  1  0.80232144  0.98096113  0.57725999  1
  C  C604  1  0.89522888  0.89515981  0.78310783  1
  H  H605  1  0.76482806  0.93977695  0.65423671  1
  H  H606  1  0.92263684  0.83064215  0.92175759  1
  C  C607  1  0.85107156  0.96435803  0.77256513  1
  H  H608  1  0.65762900  0.98472606  0.80343383  1
  N  N609  1  0.91908221  0.95624143  0.98727552  1
  H  H610  1  0.86200086  0.78001543  0.91694211  1
  H  H611  1  0.69805949  0.96031004  0.92296402  1
  C  C612  1  0.74461041  0.84770312  0.97452354  1
  H  H613  1  0.51351815  0.91510668  0.56993694  1
  H  H614  1  0.63667193  0.77105810  0.70176719  1
  H  H615  1  0.53886146  0.84009966  0.71159449  1
  O  O616  1  0.57095431  0.78204030  0.81990070  1
  C  C617  1  0.93934988  0.93208463  0.77694274  1
  C  C618  1  0.98685226  0.76110941  0.62439078  1
  C  C619  1  0.72843980  0.95990956  0.80076397  1
  H  H620  1  0.76844292  0.82604886  0.78817685  1
  H  H621  1  0.89648657  0.96783664  0.56749780  1
  C  C622  1  0.58647486  0.84838189  0.82228949  1
  C  C623  1  0.72554607  0.96506572  0.62788886  1
  H  H624  1  0.53561335  0.94027814  0.72261923  1
  C  C625  1  0.60210675  0.98283738  0.64387370  1
  C  C626  1  0.55448904  0.91816318  0.83577572  1
  C  C627  1  0.51165284  0.81372334  0.83308353  1
  C  C628  1  0.85533481  0.92037890  0.98380815  1
  C  C629  1  0.70193653  0.80694854  0.96786926  1
  C  C630  1  0.84956496  0.98970948  0.98507306  1
  C  C631  1  0.51777644  0.96684410  0.69248549  1
  C  C632  1  0.50670351  0.88121417  0.83632999  1
  H  H633  1  0.60745369  0.97398101  0.50845967  1
  O  O634  1  0.53005992  0.76622536  0.99741674  1
  C  C635  1  0.58366133  0.79789931  0.99600433  1
