# generated using pymatgen
data_CuH4C9NO5
_symmetry_space_group_name_H-M   'P 1'
_cell_length_a   12.66750419
_cell_length_b   17.27101091
_cell_length_c   37.34984733
_cell_angle_alpha   90.00000000
_cell_angle_beta   90.00000000
_cell_angle_gamma   90.00000000
_symmetry_Int_Tables_number   1
_chemical_formula_structural   CuH4C9NO5
_chemical_formula_sum   'Cu24 H96 C216 N24 O120'
_cell_volume   8171.42212828
_cell_formula_units_Z   24
loop_
 _symmetry_equiv_pos_site_id
 _symmetry_equiv_pos_as_xyz
  1  'x, y, z'
loop_
 _atom_site_type_symbol
 _atom_site_label
 _atom_site_symmetry_multiplicity
 _atom_site_fract_x
 _atom_site_fract_y
 _atom_site_fract_z
 _atom_site_occupancy
  C  C0  1  0.46706547  0.09054823  0.12898265  1
  O  O1  1  0.29825879  0.26831569  0.04922677  1
  Cu  Cu2  1  0.00392677  0.04445205  0.08808931  1
  C  C3  1  0.41359742  0.12628132  0.18993105  1
  C  C4  1  0.04071681  0.36429807  0.13467585  1
  Cu  Cu5  1  0.40363137  0.35719888  0.18800131  1
  C  C6  1  0.36451549  0.10243551  0.11770794  1
  O  O7  1  0.26745181  0.36797810  0.19128024  1
  N  N8  1  0.42810824  0.16676460  0.22425145  1
  O  O9  1  0.15648741  0.06317657  0.22563261  1
  C  C10  1  0.35305322  0.22189038  0.05095354  1
  Cu  Cu11  1  0.36925425  0.28823946  0.13004288  1
  O  O12  1  0.23044682  0.30284102  0.14098519  1
  C  C13  1  0.20292856  0.34451092  0.16755025  1
  C  C14  1  0.07462280  0.43772501  0.18935484  1
  C  C15  1  0.10067115  0.38137083  0.16477468  1
  H  H16  1  0.13479599  0.45675035  0.20970984  1
  O  O17  1  0.14957242  0.07537643  0.10460963  1
  C  C18  1  0.28264930  0.11673122  0.14287125  1
  C  C19  1  0.30771751  0.13110507  0.17883182  1
  C  C20  1  0.49271979  0.10488627  0.16555258  1
  H  H21  1  0.38333417  0.15410774  0.24751567  1
  O  O22  1  0.10258298  0.10733729  0.16048806  1
  H  H23  1  0.06781854  0.32430478  0.11424083  1
  H  H24  1  0.24619564  0.14853495  0.19703411  1
  C  C25  1  0.17076627  0.10049052  0.13517874  1
  C  C26  1  0.30960546  0.49027919  0.00701037  1
  H  H27  1  0.43665531  0.35784130  0.02500532  1
  Cu  Cu28  1  0.05125239  0.03237896  0.19391601  1
  H  H29  1  0.25139995  0.44579507  0.01342156  1
  O  O30  1  0.49905493  0.05759360  0.06890108  1
  H  H31  1  0.33855531  0.09352501  0.08926273  1
  O  O32  1  0.19793550  0.17328372  0.24974390  1
  C  C33  1  0.23168643  0.38170093  0.43398254  1
  C  C34  1  0.23736429  0.39468716  0.49890031  1
  Cu  Cu35  1  0.36452288  0.43822222  0.37711639  1
  H  H36  1  0.45178507  0.39768256  0.44286506  1
  O  O37  1  0.13358789  0.37754165  0.43480044  1
  C  C38  1  0.29720796  0.39879242  0.46591538  1
  H  H39  1  0.22456999  0.12487749  0.44072484  1
  O  O40  1  0.28260496  0.36790551  0.40603709  1
  Cu  Cu41  1  0.07173300  0.32362354  0.39025966  1
  C  C42  1  0.06192743  0.10424142  0.27863494  1
  O  O43  1  0.45939014  0.14038456  0.29786701  1
  C  C44  1  0.14663939  0.11371491  0.25098596  1
  C  C45  1  0.18855916  0.14312569  0.46693435  1
  C  C46  1  0.40484804  0.40485790  0.46772242  1
  O  O47  1  0.08659066  0.22520020  0.41159711  1
  C  C48  1  0.09773543  0.18921311  0.47121510  1
  H  H49  1  0.08365631  0.22032973  0.30272364  1
  H  H50  1  0.15289938  0.37852297  0.49961292  1
  O  O51  1  0.36499054  0.04973853  0.45852914  1
  C  C52  1  0.22763428  0.11133953  0.49817573  1
  O  O53  1  0.04050027  0.42961473  0.37216382  1
  C  C54  1  0.04367221  0.16437233  0.30306642  1
  H  H55  1  0.06651621  0.04380988  0.38738521  1
  C  C56  1  0.03897811  0.22039623  0.44063491  1
  C  C57  1  0.31868285  0.05680090  0.49002823  1
  N  N58  1  0.12801631  0.00401652  0.38988042  1
  O  O59  1  0.00549269  0.27967885  0.34952657  1
  C  C60  1  0.00822683  0.01523669  0.43938272  1
  C  C61  1  0.22052645  0.48515452  0.27750429  1
  H  H62  1  0.08436153  0.00775632  0.48973071  1
  O  O63  1  0.49417282  0.40733694  0.35924386  1
  O  O64  1  0.28803769  0.49455767  0.26160326  1
  H  H65  1  0.15759009  0.17764718  0.66711758  1
  H  H66  1  0.03073478  0.26219165  0.57272890  1
  H  H67  1  0.23289781  0.10262421  0.55599919  1
  C  C68  1  0.24183439  0.39176891  0.64855946  1
  C  C69  1  0.10762539  0.29822101  0.65868526  1
  C  C70  1  0.33960750  0.13399525  0.63425835  1
  O  O71  1  0.35586696  0.02708415  0.51556347  1
  N  N72  1  0.09821400  0.22626035  0.56891567  1
  H  H73  1  0.07913797  0.42433889  0.65663236  1
  C  C74  1  0.19090327  0.12856435  0.53160222  1
  O  O75  1  0.26307817  0.09451883  0.63344636  1
  O  O76  1  0.06649794  0.37140156  0.57080305  1
  C  C77  1  0.19519195  0.26684910  0.56961276  1
  C  C78  1  0.18292471  0.23991248  0.66216750  1
  C  C79  1  0.15449050  0.35268483  0.56855064  1
  H  H80  1  0.23366216  0.45900082  0.57786970  1
  N  N81  1  0.24059592  0.40374375  0.56684126  1
  H  H82  1  0.44319510  0.20985648  0.64723122  1
  H  H83  1  0.38017010  0.17116370  0.57686341  1
  C  C84  1  0.10640969  0.18146884  0.53624846  1
  H  H85  1  0.49152544  0.12610420  0.51635753  1
  N  N86  1  0.44688665  0.14068178  0.58189034  1
  C  C87  1  0.31947443  0.33378339  0.64760067  1
  O  O88  1  0.28536435  0.25093104  0.57422558  1
  N  N89  1  0.36885362  0.19573114  0.65679557  1
  C  C90  1  0.29060995  0.25841676  0.65700805  1
  C  C91  1  0.05154043  0.20485454  0.50407264  1
  C  C92  1  0.29188562  0.40495583  0.53019029  1
  H  H93  1  0.39616910  0.34806185  0.63865133  1
  C  C94  1  0.40060427  0.41824467  0.53289689  1
  C  C95  1  0.13592737  0.37743130  0.65417677  1
  C  C96  1  0.27106513  0.47667199  0.64027073  1
  O  O97  1  0.35533247  0.49257918  0.62863276  1
  H  H98  1  0.03076519  0.12161665  0.71672237  1
  C  C99  1  0.45417111  0.11249868  0.61661138  1
  O  O100  1  0.08183456  0.44465414  0.74182837  1
  H  H101  1  0.44166619  0.42298617  0.55983852  1
  O  O102  1  0.16544729  0.01833444  0.74638679  1
  C  C103  1  0.45570223  0.41754839  0.50042291  1
  O  O104  1  0.35336374  0.01987012  0.77837322  1
  O  O105  1  0.24877438  0.44932930  0.91571541  1
  C  C106  1  0.39160822  0.44084413  0.81389726  1
  C  C107  1  0.47180772  0.12782767  0.84204149  1
  O  O108  1  0.11052669  0.24262295  0.80194832  1
  C  C109  1  0.09579170  0.20161893  0.77425512  1
  C  C110  1  0.41880870  0.18306351  0.84347035  1
  O  O111  1  0.07760256  0.41150909  0.79810272  1
  Cu  Cu112  1  0.25236936  0.09447046  0.76801121  1
  H  H113  1  0.35615661  0.35433732  0.98606492  1
  O  O114  1  0.31244954  0.27082283  0.81061268  1
  O  O115  1  0.33893272  0.28876867  0.86941098  1
  C  C116  1  0.35485863  0.24793074  0.84072491  1
  C  C117  1  0.19204122  0.43842415  0.93983968  1
  Cu  Cu118  1  0.40286033  0.38166255  0.88584064  1
  O  O119  1  0.16958056  0.17664633  0.75453863  1
  C  C120  1  0.03184497  0.42527534  0.76814914  1
  Cu  Cu121  1  0.19270716  0.34048152  0.80466603  1
  H  H122  1  0.43557693  0.16349250  0.88954506  1
  O  O123  1  0.44594117  0.41157822  0.83875497  1
  O  O124  1  0.29524386  0.42987305  0.81042655  1
  O  O125  1  0.13354281  0.42720364  0.96280504  1
  O  O126  1  0.07252392  0.00263951  0.79542390  1
  C  C127  1  0.43108716  0.38112743  0.99595524  1
  C  C128  1  0.44503883  0.49753500  0.78989087  1
  C  C129  1  0.41336496  0.46688996  0.99563819  1
  C  C130  1  0.04271259  0.81561029  0.15191316  1
  C  C131  1  0.06441961  0.58769888  0.10516025  1
  N  N132  1  0.25707822  0.62977829  0.02210685  1
  Cu  Cu133  1  0.12966044  0.68228496  0.04687235  1
  C  C134  1  0.28412866  0.56517674  0.01498816  1
  C  C135  1  0.43399177  0.56107373  0.13924660  1
  C  C136  1  0.33032144  0.59069644  0.14889740  1
  C  C137  1  0.14113899  0.86400460  0.16033104  1
  O  O138  1  0.16897343  0.76584001  0.01538816  1
  C  C139  1  0.14447307  0.59538971  0.13313269  1
  O  O140  1  0.20071760  0.87879190  0.13699220  1
  O  O141  1  0.15507470  0.87845468  0.19398611  1
  N  N142  1  0.19470022  0.69080010  0.21681543  1
  C  C143  1  0.20929346  0.65215505  0.18722198  1
  C  C144  1  0.12390168  0.63517399  0.16403423  1
  C  C145  1  0.24595245  0.57692732  0.12440438  1
  C  C146  1  0.31795709  0.62977340  0.18407956  1
  Cu  Cu147  1  0.27785257  0.85341933  0.22039594  1
  C  C148  1  0.01148029  0.88384581  0.00220678  1
  H  H149  1  0.08195703  0.79618751  0.09611227  1
  H  H150  1  0.12079181  0.70451994  0.22374964  1
  O  O151  1  0.39621285  0.63688566  0.20464333  1
  H  H152  1  0.26178142  0.55722550  0.09707990  1
  C  C153  1  0.02681972  0.78649807  0.11823022  1
  H  H154  1  0.04153503  0.65324628  0.17062146  1
  H  H155  1  0.04773157  0.88113900  0.03055609  1
  O  O156  1  0.10223150  0.58705877  0.07481173  1
  Cu  Cu157  1  0.46160857  0.57782061  0.24624430  1
  H  H158  1  0.31495114  0.66924651  0.01624598  1
  O  O159  1  0.41536721  0.84567479  0.23774658  1
  C  C160  1  0.38059535  0.86593275  0.36886871  1
  C  C161  1  0.34235018  0.72613161  0.37239123  1
  C  C162  1  0.43350024  0.69406895  0.30673450  1
  N  N163  1  0.46168672  0.67669476  0.27244921  1
  C  C164  1  0.39317993  0.63216663  0.32780014  1
  H  H165  1  0.29905360  0.74122460  0.39744742  1
  H  H166  1  0.40870344  0.57242230  0.31981918  1
  C  C167  1  0.07709502  0.79502068  0.37760850  1
  C  C168  1  0.07722094  0.87105194  0.39085052  1
  C  C169  1  0.38849943  0.78492470  0.35239495  1
  C  C170  1  0.43497168  0.77336497  0.31950822  1
  C  C171  1  0.03852151  0.72443383  0.39654777  1
  C  C172  1  0.13871472  0.84581262  0.32245305  1
  O  O173  1  0.33554210  0.87403480  0.39954966  1
  H  H174  1  0.19148134  0.96985104  0.31810074  1
  C  C175  1  0.17556810  0.82761911  0.28707593  1
  C  C176  1  0.29356597  0.58411121  0.37814914  1
  H  H177  1  0.11366231  0.71950000  0.33264786  1
  O  O178  1  0.21975939  0.87801492  0.26699200  1
  C  C179  1  0.34423809  0.64918603  0.36029512  1
  H  H180  1  0.48530488  0.96727361  0.26712437  1
  H  H181  1  0.04640949  0.88569662  0.41768546  1
  O  O182  1  0.39992372  0.92277621  0.35192912  1
  H  H183  1  0.00415084  0.99707855  0.25740062  1
  H  H184  1  0.46418211  0.82393056  0.30392533  1
  C  C185  1  0.15260817  0.92404140  0.33380471  1
  O  O186  1  0.17136744  0.75669228  0.27746548  1
  O  O187  1  0.22525450  0.59587354  0.40169533  1
  Cu  Cu188  1  0.08489396  0.56648384  0.40238506  1
  C  C189  1  0.11164761  0.78109887  0.34260190  1
  C  C190  1  0.11863932  0.92986833  0.36954911  1
  Cu  Cu191  1  0.33247559  0.96219441  0.43112937  1
  O  O192  1  0.19123191  0.96562206  0.44644970  1
  O  O193  1  0.00601644  0.72612286  0.42598479  1
  O  O194  1  0.04307035  0.65687540  0.37927630  1
  C  C195  1  0.11826903  0.99364825  0.42648665  1
  O  O196  1  0.29746351  0.52105118  0.35970244  1
  N  N197  1  0.01467250  0.99989622  0.47663414  1
  Cu  Cu198  1  0.29633245  0.71922960  0.25241744  1
  O  O199  1  0.10538256  0.68556797  0.67372053  1
  O  O200  1  0.41745032  0.69644761  0.70680507  1
  O  O201  1  0.17468735  0.79720319  0.65878830  1
  H  H202  1  0.16314398  0.90804332  0.70918417  1
  C  C203  1  0.12433531  0.76103573  0.67944855  1
  Cu  Cu204  1  0.22076456  0.61274562  0.67500602  1
  C  C205  1  0.11083271  0.86971654  0.72470931  1
  O  O206  1  0.19712451  0.52928860  0.64196747  1
  C  C207  1  0.08307583  0.79452732  0.71320753  1
  O  O208  1  0.27674907  0.62354303  0.71915286  1
  C  C209  1  0.37684688  0.64465362  0.72266777  1
  C  C210  1  0.02107378  0.74633828  0.73613029  1
  C  C211  1  0.44029938  0.59988693  0.74895859  1
  H  H212  1  0.00913997  0.68457671  0.72871260  1
  O  O213  1  0.37903298  0.97369553  0.72408005  1
  C  C214  1  0.38316829  0.54395279  0.76839770  1
  C  C215  1  0.05047318  0.83294299  0.97589731  1
  H  H216  1  0.19596345  0.68610393  0.96923308  1
  C  C217  1  0.13361213  0.77802437  0.98455142  1
  C  C218  1  0.07281754  0.89421804  0.75769271  1
  H  H219  1  0.29869096  0.52779461  0.76544460  1
  O  O220  1  0.15324359  0.72964599  0.95757559  1
  H  H221  1  0.03340409  0.79248350  0.92056114  1
  C  C222  1  0.10129013  0.97780056  0.76743211  1
  C  C223  1  0.49566460  0.52207592  0.98931979  1
  C  C224  1  0.00565222  0.85129142  0.77929017  1
  C  C225  1  0.00944296  0.83346285  0.94111296  1
  O  O226  1  0.48886280  0.58958732  0.99263850  1
  C  C227  1  0.41044731  0.98717140  0.75333045  1
  C  C228  1  0.94754593  0.40794165  0.13013188  1
  H  H229  1  0.77357495  0.08544529  0.23340573  1
  C  C230  1  0.97595674  0.47544569  0.18733835  1
  Cu  Cu231  1  0.73158852  0.05788826  0.06209295  1
  C  C232  1  0.91358965  0.45588741  0.15750422  1
  O  O233  1  0.80745872  0.15385469  0.06799216  1
  Cu  Cu234  1  0.87088102  0.31799208  0.03606171  1
  H  H235  1  0.58000199  0.10437925  0.17238749  1
  C  C236  1  0.68843183  0.28456459  0.15213860  1
  C  C237  1  0.72099476  0.23909122  0.12259657  1
  O  O238  1  0.54803638  0.34001366  0.18345176  1
  N  N239  1  0.93423972  0.28311331  0.20962764  1
  C  C240  1  0.89502306  0.22203824  0.15380199  1
  O  O241  1  0.90701079  0.03806294  0.18930848  1
  O  O242  1  0.65404781  0.27607560  0.03013945  1
  O  O243  1  0.93407657  0.37113171  0.07114406  1
  H  H244  1  0.67190689  0.22712882  0.09981671  1
  H  H245  1  0.95119593  0.34355335  0.21022484  1
  H  H246  1  0.72076684  0.32907370  0.20642430  1
  C  C247  1  0.82528779  0.21472604  0.12482014  1
  C  C248  1  0.85289815  0.26614281  0.18157844  1
  C  C249  1  0.75294635  0.29802341  0.18191448  1
  O  O250  1  0.96309363  0.14807233  0.09362920  1
  C  C251  1  0.86769128  0.16925623  0.09323904  1
  C  C252  1  0.58046624  0.30995834  0.15419815  1
  C  C253  1  0.89301567  0.41294657  0.09536102  1
  C  C254  1  0.89128391  0.26471729  0.24282595  1
  C  C255  1  0.72085266  0.03222195  0.23265279  1
  O  O256  1  0.64312667  0.06259171  0.10037254  1
  O  O257  1  0.61528220  0.16964092  0.22116771  1
  C  C258  1  0.53952531  0.07008750  0.09738599  1
  C  C259  1  0.53350991  0.16233231  0.23585080  1
  O  O260  1  0.82366166  0.46108153  0.08961293  1
  C  C261  1  0.70327844  0.28981104  0.00313653  1
  O  O262  1  0.51596314  0.29514328  0.12930410  1
  H  H263  1  0.97361780  0.19970770  0.15393520  1
  O  O264  1  0.82336210  0.02991549  0.02508083  1
  H  H265  1  0.83576764  0.48515147  0.15468775  1
  C  C266  1  0.85934992  0.44453360  0.36102440  1
  C  C267  1  0.52682037  0.13353096  0.27655076  1
  O  O268  1  0.62429086  0.44497265  0.47258481  1
  O  O269  1  0.77102410  0.18693347  0.46362848  1
  C  C270  1  0.95619377  0.46598411  0.38138214  1
  C  C271  1  0.88365620  0.34609927  0.26338566  1
  H  H272  1  0.76140167  0.49168264  0.40411023  1
  O  O273  1  0.94282960  0.24145683  0.44176129  1
  O  O274  1  0.55757731  0.45787014  0.40998629  1
  H  H275  1  0.94732887  0.38975786  0.31849996  1
  C  C276  1  0.89227024  0.09790390  0.32761562  1
  C  C277  1  0.67729785  0.39535335  0.32699850  1
  Cu  Cu278  1  0.82577581  0.20061378  0.41962192  1
  H  H279  1  0.75114887  0.28512488  0.27189692  1
  O  O280  1  0.86052067  0.22469888  0.37231323  1
  H  H281  1  0.60457767  0.37879452  0.31240422  1
  O  O282  1  0.85787812  0.20764750  0.25612082  1
  H  H283  1  0.83291598  0.09267470  0.34846109  1
  C  C284  1  0.67438711  0.43024491  0.36097027  1
  H  H285  1  0.64028336  0.08014221  0.30859497  1
  C  C286  1  0.77713307  0.37942606  0.31097914  1
  O  O287  1  0.60701986  0.15852831  0.45360190  1
  C  C288  1  0.86753423  0.40412506  0.32921325  1
  C  C289  1  0.76577542  0.46344392  0.37710744  1
  C  C290  1  0.67695212  0.16687167  0.47408806  1
  C  C291  1  0.93716762  0.22610693  0.34998133  1
  N  N292  1  0.77885859  0.34281622  0.27519795  1
  N  N293  1  0.61940063  0.09395904  0.28222718  1
  C  C294  1  0.91758414  0.00890850  0.49513666  1
  C  C295  1  0.95980726  0.16100737  0.32651690  1
  C  C296  1  0.57041440  0.43381429  0.37810670  1
  O  O297  1  0.93375987  0.02897941  0.42132088  1
  O  O298  1  0.67789362  0.06364708  0.36776736  1
  C  C299  1  0.64723193  0.11557596  0.37837608  1
  C  C300  1  0.91113704  0.03672637  0.30393948  1
  O  O301  1  0.94910017  0.39419562  0.26132426  1
  C  C302  1  0.63067862  0.02977683  0.25500741  1
  C  C303  1  0.99632688  0.03931964  0.27973533  1
  C  C304  1  0.55441512  0.14710806  0.56737488  1
  C  C305  1  0.92460852  0.02006378  0.53304872  1
  O  O306  1  0.79877549  0.22784475  0.62870910  1
  O  O307  1  0.90409464  0.23092860  0.58023564  1
  C  C308  1  0.84087687  0.02483695  0.59396182  1
  H  H309  1  0.99739705  0.02749641  0.54719796  1
  O  O310  1  0.93610361  0.05224816  0.67647811  1
  C  C311  1  0.65575456  0.16919304  0.51390867  1
  C  C312  1  0.63998134  0.16867502  0.58954044  1
  C  C313  1  0.56102168  0.14837807  0.52982055  1
  C  C314  1  0.73382180  0.18703058  0.57247715  1
  C  C315  1  0.74213184  0.18720795  0.53496046  1
  H  H316  1  0.63334843  0.16687615  0.61968993  1
  C  C317  1  0.87034106  0.43279650  0.73107427  1
  C  C318  1  0.70443928  0.42642263  0.68997360  1
  C  C319  1  0.82306318  0.21643156  0.59391240  1
  Cu  Cu320  1  0.78901137  0.32458352  0.64297939  1
  H  H321  1  0.92548115  0.43589998  0.70867175  1
  O  O322  1  0.76284025  0.42399400  0.66045933  1
  C  C323  1  0.86680138  0.09697139  0.73091002  1
  C  C324  1  0.76397322  0.42507141  0.72610066  1
  C  C325  1  0.85418091  0.05619368  0.69747904  1
  C  C326  1  0.97078382  0.12623289  0.73715419  1
  O  O327  1  0.77110486  0.02151188  0.68846150  1
  O  O328  1  0.92414220  0.32314444  0.66532662  1
  Cu  Cu329  1  0.95853411  0.12393487  0.63833341  1
  H  H330  1  0.81911650  0.20149147  0.52159715  1
  O  O331  1  0.76403185  0.02192691  0.61406872  1
  O  O332  1  0.61287660  0.42169270  0.68779313  1
  O  O333  1  0.93317787  0.04235488  0.60536357  1
  O  O334  1  0.51781105  0.07884104  0.63333279  1
  O  O335  1  0.61363761  0.43735395  0.53046708  1
  C  C336  1  0.83444764  0.01196712  0.55440441  1
  O  O337  1  0.98636468  0.20172166  0.66771102  1
  H  H338  1  0.97899584  0.24067834  0.50739625  1
  C  C339  1  0.56815047  0.43780576  0.50265910  1
  C  C340  1  0.99906597  0.27420437  0.66243161  1
  C  C341  1  0.75018444  0.38147369  0.78840855  1
  C  C342  1  0.71281581  0.28700363  0.83286051  1
  C  C343  1  0.91097861  0.18165107  0.79310493  1
  H  H344  1  0.92330293  0.21967295  0.81730667  1
  H  H345  1  0.89580211  0.37218400  0.82134370  1
  N  N346  1  0.73585047  0.15178853  0.81720318  1
  H  H347  1  0.77484423  0.16760846  0.83955847  1
  N  N348  1  0.53702233  0.32025154  0.88688002  1
  C  C349  1  0.66698711  0.21679934  0.81090360  1
  H  H350  1  0.56735673  0.30190891  0.86089184  1
  N  N351  1  0.67988823  0.35828677  0.81730757  1
  H  H352  1  0.75341118  0.27351549  0.93061856  1
  O  O353  1  0.77405562  0.27966004  0.85645199  1
  C  C354  1  0.81241386  0.14577227  0.78798885  1
  C  C355  1  0.85982637  0.38603022  0.79524700  1
  H  H356  1  0.60845674  0.33463721  0.80654765  1
  C  C357  1  0.99038227  0.16695144  0.76753741  1
  C  C358  1  0.67418195  0.29866129  0.93495511  1
  C  C359  1  0.60442266  0.40895866  0.97438701  1
  C  C360  1  0.60313056  0.30900849  0.90902081  1
  C  C361  1  0.63405942  0.32525225  0.97253328  1
  C  C362  1  0.91354706  0.41380415  0.76541665  1
  O  O363  1  0.59822887  0.21909451  0.79006324  1
  O  O364  1  0.53526411  0.09452664  0.87391390  1
  C  C365  1  0.52732886  0.34979051  0.97904406  1
  H  H366  1  0.61837286  0.38893400  0.75186220  1
  H  H367  1  0.53025801  0.11784373  0.81984794  1
  H  H368  1  0.50427334  0.00081426  0.81409994  1
  C  C369  1  0.70327480  0.39780075  0.75433378  1
  O  O370  1  0.51421860  0.12348208  0.97205641  1
  C  C371  1  0.50094529  0.12436412  0.90317148  1
  C  C372  1  0.51446592  0.12380587  0.94024402  1
  H  H373  1  0.59744384  0.47624201  0.81497091  1
  O  O374  1  0.61026775  0.48065363  0.97806825  1
  C  C375  1  0.78572395  0.10510409  0.75648819  1
  O  O376  1  0.79849856  0.27630137  0.99741787  1
  H  H377  1  0.70338691  0.08243057  0.75572003  1
  C  C378  1  0.58144728  0.91608779  0.22378661  1
  N  N379  1  0.82879639  0.71979639  0.20203684  1
  C  C380  1  0.89893547  0.66690322  0.22003863  1
  O  O381  1  0.85943594  0.93193305  0.16288076  1
  H  H382  1  0.78855855  0.69640644  0.13389122  1
  C  C383  1  0.85982809  0.73031093  0.13761041  1
  H  H384  1  0.68327372  0.86314458  0.18323539  1
  O  O385  1  0.96599391  0.67859710  0.24110821  1
  C  C386  1  0.88398797  0.75705822  0.17252667  1
  C  C387  1  0.50109122  0.84630239  0.21827928  1
  C  C388  1  0.93531475  0.74424215  0.11065705  1
  O  O389  1  0.84699579  0.66904171  0.06540854  1
  O  O390  1  0.81047166  0.58618668  0.17634126  1
  C  C391  1  0.87735392  0.59297473  0.19843329  1
  C  C392  1  0.66968578  0.91278335  0.20296103  1
  Cu  Cu393  1  0.84178104  0.56623034  0.07756045  1
  C  C394  1  0.97355080  0.80126352  0.17997025  1
  O  O395  1  0.94369407  0.97234020  0.05611199  1
  H  H396  1  0.76526624  0.69004314  0.19068548  1
  C  C397  1  0.92212664  0.71336246  0.07482663  1
  O  O398  1  0.52417329  0.79437226  0.19841291  1
  C  C399  1  0.84233112  0.97760877  0.18588774  1
  C  C400  1  0.74214627  0.97454874  0.20743606  1
  O  O401  1  0.96515471  0.58128089  0.10981963  1
  H  H402  1  0.99925848  0.56566075  0.23191651  1
  C  C403  1  0.89675069  0.98198156  0.02674672  1
  O  O404  1  0.51915961  0.53922678  0.13328903  1
  N  N405  1  0.96150359  0.54458321  0.20935365  1
  O  O406  1  0.99363258  0.73216993  0.05333249  1
  H  H407  1  0.98850729  0.81401616  0.20840595  1
  C  C408  1  0.79349080  0.71114443  0.36162723  1
  O  O409  1  0.56264595  0.95427225  0.46259517  1
  C  C410  1  0.65186961  0.61437561  0.34806318  1
  H  H411  1  0.58608091  0.57614622  0.35656859  1
  H  H412  1  0.83139764  0.75378982  0.38046363  1
  H  H413  1  0.81115709  0.99138688  0.45074915  1
  C  C414  1  0.88985595  0.90223473  0.29298547  1
  H  H415  1  0.81270823  0.64006455  0.27564714  1
  C  C416  1  0.63316762  0.97111674  0.48114527  1
  C  C417  1  0.81787544  0.70971037  0.32527304  1
  O  O418  1  0.82483794  0.86778033  0.35218497  1
  C  C419  1  0.78216265  0.64877245  0.30235268  1
  O  O420  1  0.60512968  0.61616211  0.41776598  1
  C  C421  1  0.70772333  0.66262101  0.37156555  1
  H  H422  1  0.90049593  0.77358033  0.28311788  1
  C  C423  1  0.85191192  0.84769198  0.32351773  1
  C  C424  1  0.68492594  0.66473223  0.41057081  1
  O  O425  1  0.72174585  0.70702233  0.43220952  1
  C  C426  1  0.69478651  0.60874324  0.31388003  1
  N  N427  1  0.87643220  0.77230416  0.31003829  1
  C  C428  1  0.63879638  0.56172018  0.28344409  1
  N  N429  1  0.83914208  0.97097821  0.30619038  1
  H  H430  1  0.79090626  0.95692555  0.32855914  1
  O  O431  1  0.93990570  0.88889080  0.26751515  1
  O  O432  1  0.53629594  0.54763233  0.28628182  1
  C  C433  1  0.81823241  0.99624054  0.47931703  1
  C  C434  1  0.55713845  0.97149124  0.25036890  1
  Cu  Cu435  1  0.61310882  0.52992481  0.44595116  1
  O  O436  1  0.96055802  0.52031444  0.40239373  1
  H  H437  1  0.50138793  0.71762432  0.25930006  1
  O  O438  1  0.68619727  0.54481451  0.25745764  1
  C  C439  1  0.58499276  0.93364249  0.73285290  1
  O  O440  1  0.70757120  0.87390574  0.68166900  1
  C  C441  1  0.74754693  0.86872108  0.71455559  1
  O  O442  1  0.83045791  0.84165480  0.72191843  1
  C  C443  1  0.68743862  0.91148284  0.74232155  1
  Cu  Cu444  1  0.74017970  0.95003994  0.65305387  1
  H  H445  1  0.54588945  0.92741500  0.70570946  1
  H  H446  1  0.58504061  0.67188753  0.74042283  1
  C  C447  1  0.73536149  0.99909878  0.54086556  1
  H  H448  1  0.66501246  0.99948242  0.55815770  1
  C  C449  1  0.72728651  0.98715451  0.50287402  1
  N  N450  1  0.70707985  0.96025488  0.83817671  1
  N  N451  1  0.90057117  0.73323807  0.78766873  1
  O  O452  1  0.82395945  0.85360900  0.83809641  1
  C  C453  1  0.92120500  0.88351713  0.93508799  1
  C  C454  1  0.79384779  0.92752296  0.89174527  1
  N  N455  1  0.71123244  0.58497809  0.78872752  1
  C  C456  1  0.52347818  0.96499189  0.76093426  1
  O  O457  1  0.70409632  0.71873963  0.79792436  1
  C  C458  1  0.86381121  0.66413172  0.77327698  1
  H  H459  1  0.85682084  0.77039835  0.80414191  1
  C  C460  1  0.72572063  0.91479531  0.77674195  1
  C  C461  1  0.77787873  0.90545206  0.85199794  1
  N  N462  1  0.87268831  0.87659528  0.90145170  1
  C  C463  1  0.59807506  0.57453359  0.77918337  1
  H  H464  1  0.77054619  0.55728951  0.77287845  1
  H  H465  1  0.88391320  0.83075529  0.88193360  1
  C  C466  1  0.56002621  0.97954675  0.79467997  1
  C  C467  1  0.88190531  0.93668162  0.96089318  1
  C  C468  1  0.66105378  0.94913425  0.80356671  1
  C  C469  1  0.98254241  0.77359870  0.76861191  1
  H  H470  1  0.97632078  0.87845834  0.80377234  1
  C  C471  1  0.74299070  0.66238596  0.78586972  1
  H  H472  1  0.80020438  0.89081627  0.78368420  1
  C  C473  1  0.55229269  0.51260217  0.79680156  1
  H  H474  1  0.82069051  0.97924134  0.95575597  1
  C  C475  1  0.54589156  0.62387926  0.75476968  1
  O  O476  1  0.89526390  0.61004189  0.75752697  1
  C  C477  1  0.92947289  0.93396849  0.99499439  1
  O  O478  1  0.74945990  0.97727855  0.90767847  1
  H  H479  1  0.66251635  0.98680184  0.85753477  1
