# generated using pymatgen
data_Zn4H30C54O13
_symmetry_space_group_name_H-M   'P 1'
_cell_length_a   15.71419640
_cell_length_b   16.80221791
_cell_length_c   19.19501292
_cell_angle_alpha   90.00000000
_cell_angle_beta   90.00000000
_cell_angle_gamma   90.00000000
_symmetry_Int_Tables_number   1
_chemical_formula_structural   Zn4H30C54O13
_chemical_formula_sum   'Zn16 H120 C216 O52'
_cell_volume   5068.12360802
_cell_formula_units_Z   4
loop_
 _symmetry_equiv_pos_site_id
 _symmetry_equiv_pos_as_xyz
  1  'x, y, z'
loop_
 _atom_site_type_symbol
 _atom_site_label
 _atom_site_symmetry_multiplicity
 _atom_site_fract_x
 _atom_site_fract_y
 _atom_site_fract_z
 _atom_site_occupancy
  O  O0  1  0.15636576  0.18607941  0.18222244  1
  O  O1  1  0.24144879  0.33120253  0.07076675  1
  O  O2  1  0.02706917  0.31069615  0.04552549  1
  Zn  Zn3  1  0.19159325  0.48977055  0.18886499  1
  C  C4  1  0.38570823  0.41026423  0.14269304  1
  H  H5  1  0.15601386  0.01474490  0.20925428  1
  C  C6  1  0.05230933  0.02803195  0.04928644  1
  O  O7  1  0.14592604  0.37660207  0.19634859  1
  C  C8  1  0.34549138  0.15208879  0.11482399  1
  C  C9  1  0.49974574  0.16668498  0.08453133  1
  C  C10  1  0.41296186  0.15635642  0.06666314  1
  H  H11  1  0.27693605  0.14681102  0.09493242  1
  H  H12  1  0.35782941  0.35809148  0.16627455  1
  Zn  Zn13  1  0.12183457  0.29862479  0.12372969  1
  O  O14  1  0.03422275  0.43759697  0.07174712  1
  C  C15  1  0.45184511  0.17460935  0.20286463  1
  C  C16  1  0.34511656  0.43557062  0.07920915  1
  C  C17  1  0.17824371  0.17960104  0.24500889  1
  C  C18  1  0.26648860  0.39643993  0.05034545  1
  C  C19  1  0.06066114  0.10536501  0.02010182  1
  H  H20  1  0.11893739  0.14201129  0.02533792  1
  C  C21  1  0.36398550  0.16321950  0.18621596  1
  C  C22  1  0.45257646  0.45032588  0.17065615  1
  H  H23  1  0.48134531  0.43048391  0.21883998  1
  H  H24  1  0.31377507  0.15952582  0.22716065  1
  O  O25  1  0.19752724  0.02546824  0.08172088  1
  H  H26  1  0.22642009  0.06543681  0.46255301  1
  H  H27  1  0.27023302  0.27954301  0.41378423  1
  C  C28  1  0.46385952  0.16804836  0.28329481  1
  H  H29  1  0.22800346  0.17309497  0.36822099  1
  Zn  Zn30  1  0.11285290  0.33973823  0.29511204  1
  O  O31  1  0.00059095  0.25649918  0.28918148  1
  O  O32  1  0.04413615  0.45230925  0.32742647  1
  C  C33  1  0.21076863  0.11100985  0.35431056  1
  C  C34  1  0.30484804  0.27200446  0.46394340  1
  H  H35  1  0.38394412  0.27009909  0.31439501  1
  O  O36  1  0.22241215  0.40122197  0.35580645  1
  C  C37  1  0.24824496  0.46685657  0.33379800  1
  C  C38  1  0.42023409  0.21769403  0.33191434  1
  C  C39  1  0.43530729  0.19661941  0.40242483  1
  C  C40  1  0.21034204  0.05312704  0.40625945  1
  O  O41  1  0.20493629  0.24255860  0.27704086  1
  C  C42  1  0.18395101  0.10314385  0.28483077  1
  H  H43  1  0.20936958  0.48729107  0.46923915  1
  C  C44  1  0.39025008  0.23936684  0.46485710  1
  O  O45  1  0.28138452  0.46703247  0.27413913  1
  C  C46  1  0.49557738  0.46437425  0.33815834  1
  H  H47  1  0.48197021  0.10605406  0.48043825  1
  C  C48  1  0.48181352  0.12989500  0.42739965  1
  C  C49  1  0.16365383  0.02402313  0.26310951  1
  C  C50  1  0.46619742  0.01596124  0.72595667  1
  O  O51  1  0.19507333  0.11709957  0.54809683  1
  H  H52  1  0.45137873  0.26059500  0.63507886  1
  H  H53  1  0.00134097  0.23761218  0.72627939  1
  O  O54  1  0.34224460  0.26460679  0.70696320  1
  O  O55  1  0.21742998  0.30438989  0.67291177  1
  C  C56  1  0.32808917  0.27588435  0.58580994  1
  H  H57  1  0.20229027  0.29506831  0.54169691  1
  C  C58  1  0.44862633  0.23886019  0.52145945  1
  O  O59  1  0.04780459  0.09450112  0.54849679  1
  C  C60  1  0.41338962  0.25770516  0.58626148  1
  C  C61  1  0.26967101  0.28396614  0.53055101  1
  C  C62  1  0.29320940  0.28567869  0.65920576  1
  O  O63  1  0.12435433  0.47221483  0.56782738  1
  C  C64  1  0.14813211  0.00922319  0.72929471  1
  H  H65  1  0.04403714  0.41308672  0.73568935  1
  C  C66  1  0.12009398  0.10613118  0.54823008  1
  O  O67  1  0.11040755  0.49722752  0.62512901  1
  H  H68  1  0.09973222  0.05102311  0.74997782  1
  O  O69  1  0.28578883  0.31543264  0.84771848  1
  Zn  Zn70  1  0.39781330  0.31363154  0.80760033  1
  O  O71  1  0.15541919  0.45206233  0.81261939  1
  C  C72  1  0.07645531  0.21940578  0.85249951  1
  O  O73  1  0.45556810  0.42986915  0.78974337  1
  C  C74  1  0.23222690  0.02885872  0.83978416  1
  O  O75  1  0.08102169  0.28870827  0.82619662  1
  C  C76  1  0.01779151  0.08074697  0.84203408  1
  Zn  Zn77  1  0.19078333  0.33121533  0.78201285  1
  O  O78  1  0.26693475  0.09350421  0.82807199  1
  H  H79  1  0.45400319  0.10793320  0.80272014  1
  Zn  Zn80  1  0.26419201  0.21277866  0.89001220  1
  C  C81  1  0.39594437  0.15770205  0.98956926  1
  O  O82  1  0.12165171  0.20383565  0.90477563  1
  Zn  Zn83  1  0.27508904  0.01616113  0.98916967  1
  Zn  Zn84  1  0.27819199  0.41742179  0.89429889  1
  H  H85  1  0.03686020  0.06647597  0.89453146  1
  H  H86  1  0.45086975  0.35530359  0.96388639  1
  C  C87  1  0.02669371  0.15830486  0.81068031  1
  O  O88  1  0.45168941  0.16750103  0.94677253  1
  O  O89  1  0.23114670  0.43179284  0.99831759  1
  O  O90  1  0.20992193  0.00269503  0.89853975  1
  O  O91  1  0.31648120  0.14254004  0.96996496  1
  O  O92  1  0.37510679  0.49624217  0.86179618  1
  C  C93  1  0.41754514  0.49211350  0.80693546  1
  C  C94  1  0.10166567  0.49100588  0.84817620  1
  C  C95  1  0.01310496  0.48663449  0.82148865  1
  C  C96  1  0.48465439  0.09109804  0.75222787  1
  C  C97  1  0.46067981  0.76963769  0.12434897  1
  C  C98  1  0.38121842  0.88091008  0.06178261  1
  H  H99  1  0.49708164  0.97164100  0.10959029  1
  C  C100  1  0.45127679  0.85020280  0.10640855  1
  O  O101  1  0.27129379  0.88045717  0.21277458  1
  O  O102  1  0.19691408  0.56078765  0.10770384  1
  Zn  Zn103  1  0.21457445  0.82812385  0.11780774  1
  O  O104  1  0.11887345  0.73968497  0.09958230  1
  O  O105  1  0.37749888  0.95050628  0.03566367  1
  H  H106  1  0.46471039  0.60158828  0.04791067  1
  O  O107  1  0.05328909  0.64333148  0.04059175  1
  C  C108  1  0.43793746  0.54971090  0.07664758  1
  O  O109  1  0.32268755  0.83327480  0.04743884  1
  H  H110  1  0.16744708  0.61031241  0.11579150  1
  O  O111  1  0.11467312  0.92864404  0.11916727  1
  C  C112  1  0.08826549  0.70881011  0.04436376  1
  H  H113  1  0.41430642  0.72220173  0.10536089  1
  O  O114  1  0.30894507  0.75919312  0.20655360  1
  Zn  Zn115  1  0.12463008  0.52186041  0.01820469  1
  H  H116  1  0.33018843  0.53241361  0.00533845  1
  C  C117  1  0.49009515  0.51654588  0.13220804  1
  C  C118  1  0.12586779  0.99104316  0.08522956  1
  C  C119  1  0.31161784  0.82148948  0.23951005  1
  C  C120  1  0.36668177  0.50924704  0.05003138  1
  H  H121  1  0.14375357  0.86979361  0.00350120  1
  C  C122  1  0.16975973  0.91162875  0.44085407  1
  C  C123  1  0.19424900  0.61904441  0.47421125  1
  C  C124  1  0.23638733  0.54443173  0.37018035  1
  C  C125  1  0.33958666  0.90320864  0.34817847  1
  C  C126  1  0.24735356  0.69002495  0.36893175  1
  H  H127  1  0.14052600  0.90642106  0.29004940  1
  C  C128  1  0.02926921  0.51027759  0.28978334  1
  H  H129  1  0.30358579  0.95199147  0.32113719  1
  C  C130  1  0.25971673  0.61615366  0.33474176  1
  H  H131  1  0.42243180  0.71974881  0.29703962  1
  C  C132  1  0.37790398  0.91131862  0.41327948  1
  C  C133  1  0.44059084  0.77210409  0.40162904  1
  H  H134  1  0.19754735  0.81949011  0.36342014  1
  C  C135  1  0.42108416  0.84318082  0.44197631  1
  C  C136  1  0.35675508  0.83324695  0.30817761  1
  C  C137  1  0.41018067  0.77004006  0.33265372  1
  C  C138  1  0.18360221  0.83262453  0.41744733  1
  H  H139  1  0.48224821  0.72487922  0.42579873  1
  H  H140  1  0.28996763  0.61126829  0.28348850  1
  C  C141  1  0.20621294  0.68997275  0.43743420  1
  H  H142  1  0.26595285  0.74652025  0.34764565  1
  C  C143  1  0.17977474  0.97594366  0.38522429  1
  C  C144  1  0.18286797  0.77165334  0.46888639  1
  C  C145  1  0.21058375  0.54495063  0.44081424  1
  H  H146  1  0.01417817  0.90127134  0.37024100  1
  H  H147  1  0.37115170  0.96754068  0.44127811  1
  C  C148  1  0.16233849  0.96419188  0.31267235  1
  O  O149  1  0.00599612  0.79374492  0.28728548  1
  O  O150  1  0.08873980  0.54377070  0.25714893  1
  C  C151  1  0.44660264  0.84809395  0.51964832  1
  C  C152  1  0.18163417  0.86957144  0.56057151  1
  C  C153  1  0.00130594  0.78085129  0.60107979  1
  C  C154  1  0.47880096  0.56355809  0.70068796  1
  H  H155  1  0.41565026  0.71903026  0.53146423  1
  C  C156  1  0.18571613  0.78576744  0.54157068  1
  H  H157  1  0.47738335  0.84170412  0.72310971  1
  H  H158  1  0.02549970  0.81698900  0.55248805  1
  C  C159  1  0.02669156  0.81384575  0.73814301  1
  C  C160  1  0.23793884  0.86289027  0.68503252  1
  C  C161  1  0.43004098  0.77593407  0.55700508  1
  C  C162  1  0.48070351  0.91515944  0.62700147  1
  C  C163  1  0.17971837  0.89845829  0.63364543  1
  H  H164  1  0.19441944  0.73935367  0.58047324  1
  C  C165  1  0.12619196  0.96174956  0.66197259  1
  C  C166  1  0.44101703  0.77461824  0.62969778  1
  C  C167  1  0.46715919  0.84210103  0.66629757  1
  H  H168  1  0.16583522  0.61654485  0.52843536  1
  C  C169  1  0.43380504  0.69775190  0.67545788  1
  C  C170  1  0.01581760  0.81097161  0.66749257  1
  H  H171  1  0.25387144  0.80031049  0.67829695  1
  C  C172  1  0.47342747  0.91814845  0.55354054  1
  H  H173  1  0.17547745  0.99323910  0.52728012  1
  H  H174  1  0.06306135  0.97578874  0.63435099  1
  C  C175  1  0.47902460  0.62688516  0.65501884  1
  H  H176  1  0.41490873  0.97676314  0.74779670  1
  C  C177  1  0.38679060  0.70391358  0.73781023  1
  H  H178  1  0.48763950  0.97174778  0.52084284  1
  Zn  Zn179  1  0.26018706  0.98561684  0.67262943  1
  C  C180  1  0.17796954  0.93166152  0.51106644  1
  H  H181  1  0.34482737  0.63711747  0.82857247  1
  O  O182  1  0.11822806  0.53423152  0.89951709  1
  C  C183  1  0.10119524  0.83630709  0.96876548  1
  C  C184  1  0.07187531  0.75537464  0.98060532  1
  H  H185  1  0.27428168  0.87056708  0.80046286  1
  H  H186  1  0.00267344  0.66611008  0.91417274  1
  C  C187  1  0.03099401  0.78734378  0.87215994  1
  C  C188  1  0.02883245  0.72668600  0.92302291  1
  C  C189  1  0.01521316  0.77451176  0.80063186  1
  C  C190  1  0.38436680  0.63448741  0.78104268  1
  C  C191  1  0.08021189  0.85591954  0.89949155  1
  H  H192  1  0.35866374  0.76099165  0.75984252  1
  H  H193  1  0.09183057  0.91322737  0.87292496  1
  C  C194  1  0.21338050  0.97962256  0.77556086  1
  C  C195  1  0.42532702  0.56416037  0.76052897  1
  C  C196  1  0.25631950  0.90657681  0.75639809  1
  C  C197  1  0.65604520  0.27608762  0.00121762  1
  C  C198  1  0.62584373  0.32701030  0.17782766  1
  C  C199  1  0.70951170  0.31221327  0.05814200  1
  H  H200  1  0.77935030  0.17808236  0.05246599  1
  H  H201  1  0.58360218  0.18192447  0.17408819  1
  C  C202  1  0.51870379  0.17418289  0.15450484  1
  C  C203  1  0.69199589  0.31451012  0.13664326  1
  H  H204  1  0.60158027  0.45356164  0.21309978  1
  H  H205  1  0.77150475  0.33631227  0.03895948  1
  C  C206  1  0.91508162  0.40048182  0.00136273  1
  C  C207  1  0.84698507  0.41503793  0.19094131  1
  H  H208  1  0.54976491  0.17507016  0.04364428  1
  C  C209  1  0.99594448  0.38045645  0.04235717  1
  C  C210  1  0.89327972  0.35186243  0.21889880  1
  C  C211  1  0.77166433  0.44354663  0.22564947  1
  Zn  Zn212  1  0.58318408  0.33430173  0.07663238  1
  H  H213  1  0.86152356  0.43491609  0.13463880  1
  H  H214  1  0.61640730  0.31958117  0.23280756  1
  H  H215  1  0.63479590  0.49930070  0.03248932  1
  C  C216  1  0.90468531  0.01127578  0.02019743  1
  H  H217  1  0.94721064  0.32515719  0.19154212  1
  C  C218  1  0.88094733  0.47443826  0.02081569  1
  C  C219  1  0.93136965  0.26539034  0.31861878  1
  C  C220  1  0.79530415  0.34583606  0.31849012  1
  O  O221  1  0.76688793  0.04395116  0.32896482  1
  H  H222  1  0.90515260  0.46068722  0.36666281  1
  O  O223  1  0.91794095  0.23261990  0.37647047  1
  H  H224  1  0.78433940  0.31995582  0.37113102  1
  H  H225  1  0.63663064  0.01216654  0.47995874  1
  Zn  Zn226  1  0.81849487  0.14892842  0.39884007  1
  C  C227  1  0.51282902  0.07884247  0.37371447  1
  O  O228  1  0.76504637  0.11013959  0.29965495  1
  C  C229  1  0.86907977  0.31897733  0.28546903  1
  C  C230  1  0.51283793  0.10139915  0.30171058  1
  O  O231  1  0.55535148  0.43550768  0.33192794  1
  H  H232  1  0.53869413  0.06201692  0.26318754  1
  C  C233  1  0.74552123  0.40612933  0.28745992  1
  H  H234  1  0.68498868  0.42502628  0.30897922  1
  C  C235  1  0.95220003  0.11879116  0.70852429  1
  C  C236  1  0.54074139  0.14374984  0.71457855  1
  C  C237  1  0.77650402  0.17730762  0.61911506  1
  H  H238  1  0.78582980  0.05318548  0.62266913  1
  C  C239  1  0.55873524  0.04843143  0.62057767  1
  C  C240  1  0.90960975  0.44338815  0.73225793  1
  C  C241  1  0.57419391  0.12593326  0.64454313  1
  C  C242  1  0.77474575  0.25155003  0.65280956  1
  C  C243  1  0.72539760  0.45626944  0.68445464  1
  H  H244  1  0.58820472  0.03019530  0.57115591  1
  C  C245  1  0.78848879  0.18879288  0.53746710  1
  H  H246  1  0.51449416  0.21829227  0.51107977  1
  C  C247  1  0.77824689  0.10572576  0.65459128  1
  H  H248  1  0.61183087  0.16876001  0.61634160  1
  H  H249  1  0.78111803  0.30558558  0.62221430  1
  H  H250  1  0.90159575  0.41166285  0.68218354  1
  H  H251  1  0.66036078  0.46717075  0.66548379  1
  C  C252  1  0.76197901  0.10972473  0.72821598  1
  H  H253  1  0.92224998  0.13085566  0.65701463  1
  O  O254  1  0.73623381  0.47626899  0.50550511  1
  C  C255  1  0.77167728  0.25548865  0.72541500  1
  H  H256  1  0.76628885  0.42651516  0.64558604  1
  O  O257  1  0.76878618  0.12747644  0.50047678  1
  C  C258  1  0.55466012  0.22138333  0.74627029  1
  H  H259  1  0.95618980  0.01767431  0.59178795  1
  O  O260  1  0.81759991  0.24584195  0.50971203  1
  H  H261  1  0.60487208  0.26217964  0.72434358  1
  C  C262  1  0.75317406  0.48617228  0.74597465  1
  C  C263  1  0.94510316  0.04161065  0.73704136  1
  C  C264  1  0.99806831  0.17849965  0.74301844  1
  O  O265  1  0.52711672  0.44961472  0.98152949  1
  H  H266  1  0.61205423  0.43786674  0.83448174  1
  H  H267  1  0.78504395  0.35639447  0.86348388  1
  C  C268  1  0.97771569  0.02068321  0.80569202  1
  C  C269  1  0.76273965  0.18377085  0.76480780  1
  H  H270  1  0.76052863  0.05386534  0.75864103  1
  C  C271  1  0.87501141  0.35499654  0.94740828  1
  O  O272  1  0.52628149  0.25781031  0.79589564  1
  C  C273  1  0.57429024  0.30048723  0.97155560  1
  C  C274  1  0.71012859  0.21812175  0.95857857  1
  C  C275  1  0.84402000  0.48236366  0.76972869  1
  C  C276  1  0.76087513  0.17528707  0.84536692  1
  H  H277  1  0.90261712  0.30059945  0.92364026  1
  C  C278  1  0.82504338  0.13095601  0.88136077  1
  C  C279  1  0.69970329  0.22022602  0.88476906  1
  C  C280  1  0.64971955  0.48865875  0.85360721  1
  H  H281  1  0.64700216  0.25117975  0.85633229  1
  H  H282  1  0.55528721  0.26152454  0.92780436  1
  C  C283  1  0.83082111  0.13185456  0.95537220  1
  H  H284  1  0.87324508  0.09928759  0.85027375  1
  C  C285  1  0.80707640  0.38606524  0.91042103  1
  C  C286  1  0.76752927  0.45708587  0.94126271  1
  C  C287  1  0.51337411  0.37312582  0.98385072  1
  C  C288  1  0.67970793  0.48344249  0.92542921  1
  C  C289  1  0.61407453  0.48159371  0.97725977  1
  C  C290  1  0.77373860  0.17832643  0.99667635  1
  C  C291  1  0.90573324  0.08951007  0.99035812  1
  C  C292  1  0.98518879  0.13334931  0.99006355  1
  H  H293  1  0.98820206  0.19143071  0.96392877  1
  C  C294  1  0.99134708  0.44448597  0.76089479  1
  H  H295  1  0.77335691  0.31334178  0.75220979  1
  C  C296  1  0.57798936  0.89508864  0.16716470  1
  H  H297  1  0.82342271  0.59103629  0.15505192  1
  C  C298  1  0.70252811  0.62062646  0.10628727  1
  C  C299  1  0.61401959  0.61170088  0.10403275  1
  C  C300  1  0.74975373  0.68649039  0.07268511  1
  H  H301  1  0.97186778  0.92522246  0.08064129  1
  H  H302  1  0.91590243  0.50928298  0.05842930  1
  H  H303  1  0.88696211  0.65155978  0.09310173  1
  C  C304  1  0.73577843  0.76983158  0.22361161  1
  H  H305  1  0.57576794  0.64776832  0.06789993  1
  H  H306  1  0.62453611  0.94341412  0.18320827  1
  C  C307  1  0.75729063  0.57262862  0.14955672  1
  H  H308  1  0.62641850  0.75550168  0.05971935  1
  C  C309  1  0.58391204  0.81456940  0.19420677  1
  C  C310  1  0.57750594  0.54984264  0.14256135  1
  C  C311  1  0.69531107  0.75066761  0.04975803  1
  C  C312  1  0.73096789  0.81032386  0.00747389  1
  C  C313  1  0.87940274  0.75592118  0.03097064  1
  C  C314  1  0.84284786  0.69613392  0.07030323  1
  C  C315  1  0.80323551  0.71998753  0.23237839  1
  H  H316  1  0.97942950  0.65472255  0.22891761  1
  H  H317  1  0.94924469  0.75872622  0.02523320  1
  C  C318  1  0.50721744  0.91303902  0.12759532  1
  H  H319  1  0.53715720  0.69318431  0.19571157  1
  C  C320  1  0.72309098  0.50874734  0.18722990  1
  H  H321  1  0.84312170  0.97608137  0.02071094  1
  C  C322  1  0.97770865  0.98375430  0.05351830  1
  C  C323  1  0.52339768  0.75406010  0.17383438  1
  C  C324  1  0.63354233  0.50384257  0.18489095  1
  H  H325  1  0.77478900  0.55780283  0.01409158  1
  C  C326  1  0.90957100  0.82022386  0.38858921  1
  C  C327  1  0.89856348  0.62580372  0.48612368  1
  H  H328  1  0.89488306  0.62588830  0.42709936  1
  C  C329  1  0.60447429  0.86901660  0.36580517  1
  C  C330  1  0.84243943  0.64961199  0.26523030  1
  C  C331  1  0.62488080  0.78939581  0.33131700  1
  C  C332  1  0.61012690  0.97093771  0.44093846  1
  H  H333  1  0.91054900  0.73118145  0.29377783  1
  C  C334  1  0.94412519  0.92322919  0.47017372  1
  C  C335  1  0.96586767  0.88354160  0.40800276  1
  C  C336  1  0.63604952  0.72429609  0.38294294  1
  C  C337  1  0.78427802  0.61575265  0.30987729  1
  C  C338  1  0.83794804  0.79997928  0.42757079  1
  C  C339  1  0.55312002  0.99631827  0.38812572  1
  C  C340  1  0.94396068  0.78147661  0.32156718  1
  H  H341  1  0.68955436  0.86260017  0.46481804  1
  H  H342  1  0.79203628  0.75718126  0.40321411  1
  C  C343  1  0.94357565  0.55024199  0.29114480  1
  C  C344  1  0.64453114  0.89606015  0.42964437  1
  H  H345  1  0.97207048  0.72775684  0.46512358  1
  C  C346  1  0.80518093  0.54991677  0.35129999  1
  C  C347  1  0.93021281  0.62314423  0.25835812  1
  Zn  Zn348  1  0.67694805  0.67473783  0.28541204  1
  C  C349  1  0.55202766  0.93239323  0.34087970  1
  O  O350  1  0.63765191  0.69683633  0.44000086  1
  C  C351  1  0.88748611  0.51616847  0.34014101  1
  C  C352  1  0.64811016  0.79137813  0.25081069  1
  H  H353  1  0.51338760  0.93236306  0.29191476  1
  H  H354  1  0.75986924  0.52417589  0.38602727  1
  H  H355  1  0.98326934  0.97917683  0.48699650  1
  C  C356  1  0.81984766  0.83002718  0.49568400  1
  C  C357  1  0.79166914  0.87092902  0.61157145  1
  C  C358  1  0.85783903  0.92616213  0.58074299  1
  C  C359  1  0.90779173  0.97929752  0.61983291  1
  C  C360  1  0.79181533  0.52133687  0.51829373  1
  H  H361  1  0.72601994  0.89470972  0.60242440  1
  C  C362  1  0.65839454  0.77602665  0.70731238  1
  C  C363  1  0.92775217  0.64824900  0.62818512  1
  H  H364  1  0.54715770  0.70949136  0.73862883  1
  C  C365  1  0.74237059  0.80650344  0.73030763  1
  H  H366  1  0.63208332  0.78323744  0.65437751  1
  C  C367  1  0.87975044  0.89398677  0.51308415  1
  C  C368  1  0.90160003  0.97610623  0.69520080  1
  C  C369  1  0.79691272  0.86185058  0.69059490  1
  O  O370  1  0.77077800  0.80729697  0.54621260  1
  H  H371  1  0.86329666  0.53825973  0.65430154  1
  C  C372  1  0.88251974  0.58135342  0.61316636  1
  C  C373  1  0.85897185  0.57471285  0.53978869  1
  C  C374  1  0.84941128  0.91694085  0.72662083  1
  C  C375  1  0.50600768  0.99383258  0.66089837  1
  Zn  Zn376  1  0.96464880  0.69114646  0.73349678  1
  C  C377  1  0.95548801  0.70871265  0.58129509  1
  C  C378  1  0.94258072  0.69136260  0.50699201  1
  H  H379  1  0.50866775  0.50486620  0.68580877  1
  H  H380  1  0.51018550  0.61962600  0.60525805  1
  C  C381  1  0.68990412  0.53551055  0.78997433  1
  O  O382  1  0.58744959  0.70093544  0.87542379  1
  H  H383  1  0.74100746  0.74310251  0.89867470  1
  C  C384  1  0.63344090  0.73233362  0.82962598  1
  C  C385  1  0.71831100  0.75586421  0.84633017  1
  H  H386  1  0.83022028  0.81866886  0.82244864  1
  H  H387  1  0.96849351  0.96175653  0.82645579  1
  H  H388  1  0.81103769  0.54431401  0.86242224  1
  C  C389  1  0.80560688  0.50195315  0.99488542  1
  H  H390  1  0.71949839  0.59204774  0.80699527  1
  C  C391  1  0.77034921  0.79495501  0.80042060  1
  O  O392  1  0.83372152  0.92080883  0.91136567  1
  Zn  Zn393  1  0.61098472  0.58729475  0.91742929  1
  C  C394  1  0.86218887  0.86908869  0.94673976  1
  H  H395  1  0.93626210  0.86936610  0.94284169  1
  H  H396  1  0.84414576  0.91434773  0.78403302  1
  H  H397  1  0.63745136  0.54916009  0.75412092  1
  H  H398  1  0.95742674  0.54877911  0.91240687  1
  C  C399  1  0.94687255  0.52510791  0.85955060  1
  C  C400  1  0.82175103  0.81337694  0.99780573  1
  C  C401  1  0.60914518  0.74038432  0.75591269  1
  C  C402  1  0.86742506  0.51883130  0.83276084  1
  H  H403  1  0.69660674  0.85757101  0.97816754  1
