# generated using pymatgen
data_ZnH4(C3O)4
_symmetry_space_group_name_H-M   'P 1'
_cell_length_a   17.48211951
_cell_length_b   23.37415081
_cell_length_c   25.42942185
_cell_angle_alpha   90.00000000
_cell_angle_beta   90.00000000
_cell_angle_gamma   90.00000000
_symmetry_Int_Tables_number   1
_chemical_formula_structural   ZnH4(C3O)4
_chemical_formula_sum   'Zn24 H96 C288 O96'
_cell_volume   10391.21696571
_cell_formula_units_Z   24
loop_
 _symmetry_equiv_pos_site_id
 _symmetry_equiv_pos_as_xyz
  1  'x, y, z'
loop_
 _atom_site_type_symbol
 _atom_site_label
 _atom_site_symmetry_multiplicity
 _atom_site_fract_x
 _atom_site_fract_y
 _atom_site_fract_z
 _atom_site_occupancy
  Zn  Zn0  1  0.20174889  0.32215697  0.08404053  1
  O  O1  1  0.17895574  0.39470534  0.12666136  1
  O  O2  1  0.15649945  0.47715535  0.09008711  1
  C  C3  1  0.17378091  0.21483325  0.15214190  1
  Zn  Zn4  1  0.12255113  0.16867534  0.05095701  1
  O  O5  1  0.11946815  0.20796054  0.17926073  1
  O  O6  1  0.16433864  0.23469634  0.10415505  1
  C  C7  1  0.00463942  0.36649096  0.01594242  1
  C  C8  1  0.19757901  0.44459521  0.11516405  1
  O  O9  1  0.23777414  0.14142804  0.02432385  1
  H  H10  1  0.05018809  0.49705289  0.13592510  1
  H  H11  1  0.20619916  0.21016861  0.25528032  1
  C  C12  1  0.00228069  0.24043844  0.32129606  1
  C  C13  1  0.00326879  0.09068271  0.27487748  1
  C  C14  1  0.21257628  0.11785208  0.46449086  1
  H  H15  1  0.10576012  0.36091104  0.38426785  1
  C  C16  1  0.16412641  0.46827831  0.49369150  1
  H  H17  1  0.05512099  0.39292826  0.01875971  1
  C  C18  1  0.04082243  0.18187997  0.31169221  1
  O  O19  1  0.22143345  0.16320214  0.43772404  1
  C  C20  1  0.17972616  0.48384233  0.44220781  1
  C  C21  1  0.15534721  0.44503794  0.40422821  1
  O  O22  1  0.14955094  0.09818017  0.47488423  1
  C  C23  1  0.09843427  0.31758554  0.48934968  1
  C  C24  1  0.11635571  0.16296933  0.31597634  1
  C  C25  1  0.07952118  0.07115984  0.27378944  1
  C  C26  1  0.15190562  0.46270322  0.34645536  1
  C  C27  1  0.12516459  0.39237173  0.41569113  1
  O  O28  1  0.05471050  0.10501866  0.07519532  1
  H  H29  1  0.15798914  0.19335694  0.33082819  1
  C  C30  1  0.11997220  0.37552342  0.47074301  1
  C  C31  1  0.21774273  0.09377595  0.28584823  1
  H  H32  1  0.09134201  0.02972264  0.25911196  1
  C  C33  1  0.13586004  0.10842525  0.29473310  1
  O  O34  1  0.12661696  0.42992930  0.31584894  1
  O  O35  1  0.14825905  0.31266776  0.00630691  1
  H  H36  1  0.12774318  0.40643237  0.55231436  1
  H  H37  1  0.14785670  0.24681613  0.63159778  1
  C  C38  1  0.15327010  0.13745955  0.66311955  1
  O  O39  1  0.17408298  0.36108861  0.62873768  1
  H  H40  1  0.13618448  0.15328708  0.55244149  1
  C  C41  1  0.19400073  0.18222977  0.68774128  1
  C  C42  1  0.18289513  0.24011779  0.66540698  1
  C  C43  1  0.05068725  0.14964246  0.61110360  1
  C  C44  1  0.10618586  0.10177346  0.63555722  1
  O  O45  1  0.09668375  0.04698311  0.63367401  1
  C  C46  1  0.08575049  0.17407655  0.56675883  1
  C  C47  1  0.05208115  0.22588682  0.54495587  1
  Zn  Zn48  1  0.21530218  0.46634998  0.64393568  1
  C  C49  1  0.20990171  0.34832165  0.66863858  1
  H  H50  1  0.22130482  0.02701046  0.53064954  1
  C  C51  1  0.10227272  0.48035347  0.89891084  1
  O  O52  1  0.09559618  0.22986816  0.98535849  1
  C  C53  1  0.23931898  0.17761453  0.73659241  1
  O  O54  1  0.16507841  0.46368338  0.78411500  1
  C  C55  1  0.23935968  0.42860437  0.89784006  1
  C  C56  1  0.01389382  0.31024775  0.99894384  1
  C  C57  1  0.09167895  0.28231610  0.99530187  1
  C  C58  1  0.21622880  0.28587658  0.69059765  1
  H  H59  1  0.20445559  0.39880252  0.97777956  1
  C  C60  1  0.16454340  0.45709634  0.89958782  1
  C  C61  1  0.24803647  0.40059256  0.94605608  1
  O  O62  1  0.24558886  0.38665400  0.69320250  1
  H  H63  1  0.24556251  0.13481985  0.75674159  1
  C  C64  1  0.07946114  0.27228855  0.50756472  1
  C  C65  1  0.13279401  0.41710770  0.50978857  1
  C  C66  1  0.18895849  0.67351179  0.12785703  1
  C  C67  1  0.17561083  0.61810839  0.20985299  1
  H  H68  1  0.02840256  0.67675084  0.18434128  1
  O  O69  1  0.22038448  0.67491262  0.02205337  1
  O  O70  1  0.19731129  0.76816617  0.01975275  1
  C  C71  1  0.21129266  0.77675550  0.12799726  1
  C  C72  1  0.11531075  0.58763445  0.20205580  1
  C  C73  1  0.19376732  0.67322396  0.18316750  1
  C  C74  1  0.20115553  0.72493032  0.10168534  1
  C  C75  1  0.20491891  0.71993101  0.04386916  1
  H  H76  1  0.17185312  0.63480856  0.10554349  1
  H  H77  1  0.20968703  0.81768876  0.10693163  1
  C  C78  1  0.23304762  0.83627459  0.20513183  1
  O  O79  1  0.22295874  0.87806831  0.17274755  1
  C  C80  1  0.21832841  0.72493775  0.20884792  1
  C  C81  1  0.01907223  0.53776081  0.13613095  1
  H  H82  1  0.23435247  0.72532143  0.24962874  1
  Zn  Zn83  1  0.17239095  0.55206459  0.26380605  1
  C  C84  1  0.22036780  0.77558927  0.18236173  1
  C  C85  1  0.04421768  0.58531399  0.16658794  1
  H  H86  1  0.20345647  0.52484381  0.42800749  1
  C  C87  1  0.00943000  0.63838755  0.16344630  1
  O  O88  1  0.17928163  0.51204568  0.33302476  1
  O  O89  1  0.15384203  0.50056251  0.70787526  1
  C  C90  1  0.17403835  0.50495662  0.75583472  1
  O  O91  1  0.06153739  0.94069563  0.72031496  1
  C  C92  1  0.22365010  0.60656246  0.74139567  1
  H  H93  1  0.21031484  0.60223803  0.69834339  1
  C  C94  1  0.03399218  0.88938047  0.71603679  1
  H  H95  1  0.22186544  0.52473607  0.85073432  1
  Zn  Zn96  1  0.01653113  0.98662740  0.65554091  1
  O  O97  1  0.22494198  0.86747638  0.88177118  1
  C  C98  1  0.06351134  0.84273923  0.75245709  1
  C  C99  1  0.03297710  0.78862485  0.74471676  1
  C  C100  1  0.14753201  0.81298418  0.82187793  1
  C  C101  1  0.21098546  0.56096257  0.77334753  1
  H  H102  1  0.13009506  0.72354435  0.84770781  1
  C  C103  1  0.03321461  0.51770044  0.89294593  1
  H  H104  1  0.13970773  0.90108936  0.79544650  1
  C  C105  1  0.12076622  0.85663611  0.78891273  1
  C  C106  1  0.05715051  0.74637058  0.78226812  1
  C  C107  1  0.20046247  0.81996642  0.86969514  1
  C  C108  1  0.04696830  0.56607042  0.85978098  1
  C  C109  1  0.23359806  0.56125049  0.82639357  1
  O  O110  1  0.22318595  0.77837575  0.89710783  1
  H  H111  1  0.10402428  0.57689663  0.84783138  1
  C  C112  1  0.11559124  0.75828252  0.81892848  1
  C  C113  1  0.01780039  0.69237588  0.79506552  1
  O  O114  1  0.21259978  0.55937979  0.51489564  1
  C  C115  1  0.18562352  0.51638041  0.53164270  1
  O  O116  1  0.17017328  0.51026521  0.58140080  1
  C  C117  1  0.40008239  0.18611699  0.21459250  1
  H  H118  1  0.29507516  0.39492629  0.18704906  1
  C  C119  1  0.39287296  0.21762258  0.34172629  1
  C  C120  1  0.37487171  0.03615309  0.21443985  1
  C  C121  1  0.38896363  0.18887059  0.16180820  1
  O  O122  1  0.30509261  0.32830013  0.04063816  1
  C  C123  1  0.31410991  0.43408141  0.17195832  1
  C  C124  1  0.31791323  0.20142610  0.14066368  1
  H  H125  1  0.31168960  0.20852148  0.09808857  1
  C  C126  1  0.38617091  0.45713162  0.18997002  1
  O  O127  1  0.43862593  0.19612380  0.07327669  1
  H  H128  1  0.32916876  0.01702568  0.19147778  1
  C  C129  1  0.35107087  0.12567290  0.49126260  1
  C  C130  1  0.45238701  0.18387229  0.12068847  1
  H  H131  1  0.45458125  0.17215817  0.23135367  1
  C  C132  1  0.33630175  0.19590499  0.24812416  1
  C  C133  1  0.42401408  0.42375175  0.23255814  1
  Zn  Zn134  1  0.46250444  0.28707164  0.04800977  1
  C  C135  1  0.44755347  0.02338839  0.19793217  1
  H  H136  1  0.42070514  0.10953959  0.32910487  1
  C  C137  1  0.42767176  0.08714679  0.29078058  1
  Zn  Zn138  1  0.29820481  0.17813681  0.37850264  1
  H  H139  1  0.25886132  0.04841615  0.03817063  1
  C  C140  1  0.47022367  0.28401466  0.28762892  1
  H  H141  1  0.49569956  0.23682449  0.42540575  1
  C  C142  1  0.27315548  0.46754249  0.13844048  1
  C  C143  1  0.44859909  0.38987714  0.26458035  1
  H  H144  1  0.35392993  0.16876864  0.47419048  1
  C  C145  1  0.34344305  0.19307283  0.30771681  1
  C  C146  1  0.46230574  0.25152700  0.33877011  1
  C  C147  1  0.36471881  0.06815119  0.26076901  1
  H  H148  1  0.43504717  0.27254398  0.25247109  1
  C  C149  1  0.28393537  0.08284335  0.27518691  1
  C  C150  1  0.47609689  0.34807661  0.30145154  1
  C  C151  1  0.48394223  0.34649184  0.45076018  1
  H  H152  1  0.48595428  0.42140551  0.35837224  1
  H  H153  1  0.47630475  0.47202145  0.00929265  1
  C  C154  1  0.28282306  0.09342105  0.49540420  1
  C  C155  1  0.49980803  0.07270550  0.27013134  1
  O  O156  1  0.48260801  0.17922391  0.47539420  1
  C  C157  1  0.25466506  0.20666778  0.17451818  1
  O  O158  1  0.49918734  0.36291621  0.00233051  1
  C  C159  1  0.49602248  0.37413467  0.35346840  1
  C  C160  1  0.25966818  0.20369133  0.22900139  1
  C  C161  1  0.46684087  0.34624344  0.49741245  1
  C  C162  1  0.41588198  0.05665516  0.55062027  1
  C  C163  1  0.43939906  0.37034462  0.66849160  1
  O  O164  1  0.37908548  0.28523911  0.98754990  1
  C  C165  1  0.42001599  0.41746464  0.63190377  1
  Zn  Zn166  1  0.35193748  0.34575892  0.60477439  1
  C  C167  1  0.39365101  0.47180678  0.65122180  1
  C  C168  1  0.34160754  0.03002176  0.55560149  1
  C  C169  1  0.27450135  0.04770756  0.52706136  1
  C  C170  1  0.42945546  0.40933967  0.57468115  1
  H  H171  1  0.42786516  0.44615573  0.54803702  1
  H  H172  1  0.42503998  0.34502865  0.92001583  1
  C  C173  1  0.44798484  0.30933384  0.65073200  1
  H  H174  1  0.44134387  0.37822702  0.71223406  1
  C  C175  1  0.44625917  0.34913320  0.55199205  1
  H  H176  1  0.29194905  0.45598889  0.82295987  1
  O  O177  1  0.26000896  0.18349389  0.94839157  1
  C  C178  1  0.41436229  0.10298090  0.51754766  1
  Zn  Zn179  1  0.46897021  0.13366466  0.71673850  1
  C  C180  1  0.46703831  0.04500994  0.72918152  1
  C  C181  1  0.25842155  0.22780833  0.76135966  1
  C  C182  1  0.29522597  0.22545444  0.81707508  1
  O  O183  1  0.47770505  0.23042940  0.91607187  1
  H  H184  1  0.47302100  0.17131614  0.83501629  1
  C  C185  1  0.36623566  0.40414145  0.86930744  1
  C  C186  1  0.47442398  0.26636438  0.68810284  1
  O  O187  1  0.33397468  0.49078947  0.62950675  1
  C  C188  1  0.25589917  0.14101936  0.97688061  1
  H  H189  1  0.27308489  0.32362383  0.75949606  1
  C  C190  1  0.45710554  0.30173899  0.59331960  1
  C  C191  1  0.31505795  0.36922416  0.95240397  1
  C  C192  1  0.27197547  0.08055494  0.95500989  1
  O  O193  1  0.31232354  0.27143158  0.83673321  1
  C  C194  1  0.28241760  0.06761974  0.90332092  1
  H  H195  1  0.28522186  0.10102643  0.87137581  1
  C  C196  1  0.37161712  0.36911941  0.91321039  1
  O  O197  1  0.31513711  0.17984451  0.84026793  1
  O  O198  1  0.48539484  0.37656196  0.83364733  1
  C  C199  1  0.42376442  0.40286769  0.82571916  1
  C  C200  1  0.29797677  0.43240140  0.85996524  1
  Zn  Zn201  1  0.35630464  0.22616200  0.91943736  1
  O  O202  1  0.40866051  0.42287844  0.78037371  1
  C  C203  1  0.46356040  0.07719157  0.83238847  1
  C  C204  1  0.48890640  0.13670689  0.50275305  1
  C  C205  1  0.47488648  0.13145456  0.85664732  1
  O  O206  1  0.47135140  0.28109041  0.73529231  1
  C  C207  1  0.46479134  0.07674270  0.77492565  1
  O  O208  1  0.47846630  0.21393462  0.67500614  1
  C  C209  1  0.46735810  0.02856284  0.86585249  1
  C  C210  1  0.25396991  0.28249122  0.73961023  1
  C  C211  1  0.29477448  0.01000532  0.88856324  1
  H  H212  1  0.46642277  0.04242359  0.57423222  1
  H  H213  1  0.49134557  0.26338659  0.58127455  1
  Zn  Zn214  1  0.47477880  0.49754869  0.75490156  1
  C  C215  1  0.49182220  0.03357872  0.91702765  1
  C  C216  1  0.49824305  0.13177143  0.90954321  1
  C  C217  1  0.26749026  0.03938530  0.99526038  1
  C  C218  1  0.33196448  0.32606870  0.99669148  1
  O  O219  1  0.41114515  0.85019339  0.13666576  1
  C  C220  1  0.45762484  0.99134727  0.14766076  1
  O  O221  1  0.33528634  0.62863498  0.09514733  1
  O  O222  1  0.43798584  0.63168373  0.14311984  1
  C  C223  1  0.40872230  0.51497900  0.17776745  1
  Zn  Zn224  1  0.31487382  0.91106981  0.13426435  1
  C  C225  1  0.38435027  0.60516551  0.12632278  1
  O  O226  1  0.39811903  0.97129648  0.12432513  1
  C  C227  1  0.36388719  0.54442272  0.14339769  1
  O  O228  1  0.41247384  0.75765260  0.13128983  1
  C  C229  1  0.28418635  0.93493039  0.01697237  1
  C  C230  1  0.42280135  0.80302424  0.15754963  1
  Zn  Zn231  1  0.48293679  0.70999211  0.07944477  1
  O  O232  1  0.44055380  0.57170463  0.02409035  1
  C  C233  1  0.45027391  0.74274215  0.23670714  1
  H  H234  1  0.43111088  0.70620848  0.21269084  1
  C  C235  1  0.44957443  0.79633069  0.21332119  1
  H  H236  1  0.26028307  0.54160334  0.09234413  1
  H  H237  1  0.46379852  0.53463277  0.19259256  1
  Zn  Zn238  1  0.34108174  0.63723125  0.01345595  1
  C  C239  1  0.47281582  0.84669327  0.24005258  1
  C  C240  1  0.29320573  0.52337359  0.12216382  1
  C  C241  1  0.47328744  0.73758062  0.28929656  1
  H  H242  1  0.47165727  0.88820695  0.21838249  1
  O  O243  1  0.30627151  0.88537098  0.00470986  1
  C  C244  1  0.49118333  0.68245897  0.31488666  1
  C  C245  1  0.49351961  0.84098577  0.29066738  1
  C  C246  1  0.49219497  0.78821601  0.31643497  1
  O  O247  1  0.25388959  0.94305420  0.06025918  1
  O  O248  1  0.26667258  0.84307557  0.24565403  1
  O  O249  1  0.42231343  0.70820688  0.00628597  1
  H  H250  1  0.31611656  0.81090908  0.62637848  1
  C  C251  1  0.31699416  0.83878542  0.66198298  1
  C  C252  1  0.32493094  0.93459510  0.61366090  1
  C  C253  1  0.29649995  0.81653151  0.71377075  1
  C  C254  1  0.34544598  0.93536647  0.70760543  1
  H  H255  1  0.30181506  0.69912927  0.84040690  1
  C  C256  1  0.32992864  0.89737397  0.65950949  1
  C  C257  1  0.27229914  0.70881594  0.74260516  1
  H  H258  1  0.33373287  0.97937693  0.69685920  1
  O  O259  1  0.27704126  0.55113457  0.92394380  1
  H  H260  1  0.43504756  0.94076267  0.77556267  1
  C  C261  1  0.29084898  0.98822447  0.83417940  1
  H  H262  1  0.26660236  0.83743754  0.79475654  1
  C  C263  1  0.43318787  0.93660282  0.73113399  1
  O  O264  1  0.43886429  0.50252867  0.67548764  1
  C  C265  1  0.47197489  0.83327656  0.75084400  1
  C  C266  1  0.44831586  0.76522046  0.87410590  1
  C  C267  1  0.28904744  0.85487729  0.75864883  1
  C  C268  1  0.46056604  0.66642049  0.89959201  1
  C  C269  1  0.29881554  0.96636423  0.92706144  1
  C  C270  1  0.29424894  0.95576763  0.79679745  1
  C  C271  1  0.45589892  0.74764872  0.82252620  1
  O  O272  1  0.30524023  0.64180774  0.93636288  1
  H  H273  1  0.44580427  0.81102856  0.88550482  1
  C  C274  1  0.44578757  0.72288084  0.91310823  1
  H  H275  1  0.45469167  0.63217501  0.92879174  1
  C  C276  1  0.33169323  0.97695617  0.58676400  1
  Zn  Zn277  1  0.26950053  0.81284964  0.96870372  1
  C  C278  1  0.46058889  0.68808916  0.80759266  1
  H  H279  1  0.30772691  0.92193534  0.91481575  1
  C  C280  1  0.30494374  0.91302773  0.75600179  1
  C  C281  1  0.42132385  0.74305954  0.96543959  1
  C  C282  1  0.28164849  0.75833714  0.72807548  1
  O  O283  1  0.39712485  0.79143927  0.96942941  1
  C  C284  1  0.46892987  0.79360819  0.78190285  1
  C  C285  1  0.46250922  0.64871917  0.84683915  1
  C  C286  1  0.26057078  0.65477549  0.76558553  1
  C  C287  1  0.47550867  0.98723104  0.70747160  1
  C  C288  1  0.28372149  0.59955600  0.90788363  1
  C  C289  1  0.27889003  0.66074075  0.82112860  1
  H  H290  1  0.46214460  0.98714237  0.84873726  1
  C  C291  1  0.47228763  0.88057930  0.71441496  1
  C  C292  1  0.26294822  0.61237866  0.84842652  1
  C  C293  1  0.28451016  0.98415302  0.97814674  1
  O  O294  1  0.47645277  0.57678721  0.78542540  1
  O  O295  1  0.49347183  0.54651053  0.86490722  1
  H  H296  1  0.46904045  0.67449314  0.76709211  1
  C  C297  1  0.47639011  0.58507973  0.83469133  1
  O  O298  1  0.48250681  0.93607672  0.93779164  1
  O  O299  1  0.63565344  0.25516354  0.07315883  1
  H  H300  1  0.57396892  0.36073955  0.18664117  1
  C  C301  1  0.68854049  0.37880605  0.21874605  1
  C  C302  1  0.61155614  0.29007108  0.10702813  1
  C  C303  1  0.63620207  0.35507579  0.18263378  1
  C  C304  1  0.66637077  0.31914060  0.14473388  1
  O  O305  1  0.54308596  0.30525199  0.10793652  1
  H  H306  1  0.57456920  0.03285487  0.21221441  1
  C  C307  1  0.58295309  0.49903654  0.47858535  1
  H  H308  1  0.63219407  0.43316726  0.39705365  1
  C  C309  1  0.65467392  0.41500477  0.26200483  1
  C  C310  1  0.59683002  0.48806936  0.33337828  1
  O  O311  1  0.51243159  0.16448559  0.13620381  1
  C  C312  1  0.56766394  0.09027802  0.30206998  1
  C  C313  1  0.62774450  0.44544438  0.29523767  1
  Zn  Zn314  1  0.56544511  0.29512014  0.33074769  1
  C  C315  1  0.60617959  0.47403748  0.38563209  1
  O  O316  1  0.63319015  0.06574541  0.29052268  1
  O  O317  1  0.56398821  0.12444948  0.33709916  1
  C  C318  1  0.50187670  0.26839442  0.38974570  1
  C  C319  1  0.50522397  0.33438506  0.39817020  1
  C  C320  1  0.51500202  0.04129680  0.22449979  1
  C  C321  1  0.74503168  0.30807554  0.14216423  1
  O  O322  1  0.74960022  0.14506758  0.46849408  1
  O  O323  1  0.55134309  0.11618917  0.51786909  1
  C  C324  1  0.60605328  0.37587135  0.54696302  1
  O  O325  1  0.60269411  0.09858415  0.67677903  1
  H  H326  1  0.64054629  0.17082726  0.74520721  1
  Zn  Zn327  1  0.65524892  0.14994261  0.53969489  1
  C  C328  1  0.60170577  0.41805730  0.70998545  1
  O  O329  1  0.61968643  0.37818530  0.74252357  1
  O  O330  1  0.66991566  0.10041491  0.60580352  1
  C  C331  1  0.58307336  0.43043486  0.56356205  1
  C  C332  1  0.59990565  0.40024079  0.65236585  1
  C  C333  1  0.57999254  0.44339527  0.61793503  1
  O  O334  1  0.58499072  0.46759118  0.72217309  1
  H  H335  1  0.64131322  0.31162507  0.66916936  1
  C  C336  1  0.62539233  0.33601098  0.58544470  1
  C  C337  1  0.62693051  0.34655981  0.63925677  1
  C  C338  1  0.64557220  0.27765940  0.56033107  1
  O  O339  1  0.65753201  0.23526490  0.59011564  1
  C  C340  1  0.65876502  0.11539123  0.65326784  1
  C  C341  1  0.58079312  0.47427757  0.52067928  1
  H  H342  1  0.54638538  0.01990170  0.63882145  1
  C  C343  1  0.69171977  0.18621900  0.72294584  1
  H  H344  1  0.61776199  0.36409359  0.50611088  1
  Zn  Zn345  1  0.64089747  0.26320315  0.98574931  1
  O  O346  1  0.63838763  0.26748380  0.51291629  1
  C  C347  1  0.50799599  0.08545873  0.94204489  1
  O  O348  1  0.64291229  0.26224261  0.80767081  1
  C  C349  1  0.51766175  0.19097786  0.93282992  1
  H  H350  1  0.52858695  0.08741700  0.98143386  1
  Zn  Zn351  1  0.55607796  0.32428471  0.78792321  1
  C  C352  1  0.71146176  0.16085811  0.67430858  1
  C  C353  1  0.65743190  0.44986843  0.95519556  1
  H  H354  1  0.69367267  0.41703845  0.94123038  1
  O  O355  1  0.60104959  0.34138394  0.95607321  1
  C  C356  1  0.56014381  0.37796673  0.97839032  1
  C  C357  1  0.73448330  0.23304638  0.73984119  1
  C  C358  1  0.58598996  0.43868532  0.97888866  1
  O  O359  1  0.56120854  0.19612235  0.97171453  1
  H  H360  1  0.55942153  0.48423994  0.63124589  1
  C  C361  1  0.71103711  0.26753034  0.78874766  1
  C  C362  1  0.53687474  0.48249751  0.99659818  1
  H  H363  1  0.71615642  0.73446307  0.08684425  1
  C  C364  1  0.67253976  0.85728583  0.15246366  1
  O  O365  1  0.55774857  0.85644404  0.07726160  1
  H  H366  1  0.62867472  0.88877002  0.15446609  1
  Zn  Zn367  1  0.57953968  0.94396159  0.06535886  1
  C  C368  1  0.59780225  0.81309135  0.08231546  1
  C  C369  1  0.66791262  0.81314045  0.11592813  1
  O  O370  1  0.68234834  0.97330615  0.09166845  1
  C  C371  1  0.72531019  0.77344336  0.11176028  1
  O  O372  1  0.69643019  0.94814980  0.23056688  1
  O  O373  1  0.58236117  0.76907820  0.05802479  1
  O  O374  1  0.52376401  0.97970265  0.13288743  1
  C  C375  1  0.73695709  0.86079139  0.18428654  1
  C  C376  1  0.58598908  0.51895133  0.42381970  1
  C  C377  1  0.52514303  0.88936945  0.32642386  1
  Zn  Zn378  1  0.64444515  0.97698021  0.30224309  1
  O  O379  1  0.53404171  0.87941764  0.37224322  1
  O  O380  1  0.53716444  0.93685539  0.30431969  1
  C  C381  1  0.70989516  0.94996753  0.48713751  1
  C  C382  1  0.54391059  0.58267911  0.35552747  1
  O  O383  1  0.70129222  0.95637348  0.37779572  1
  C  C384  1  0.56609138  0.54111479  0.31792762  1
  H  H385  1  0.65698118  0.93529565  0.46801809  1
  C  C386  1  0.55519677  0.57270235  0.41149764  1
  H  H387  1  0.55763900  0.53992613  0.27348038  1
  O  O388  1  0.53660425  0.63203882  0.03534805  1
  C  C389  1  0.73548799  0.99276107  0.06209638  1
  C  C390  1  0.74700520  0.90907527  0.22488176  1
  C  C391  1  0.51062458  0.58547138  0.02036719  1
  H  H392  1  0.53284853  0.60394854  0.44323095  1
  C  C393  1  0.50884801  0.63665401  0.33468721  1
  H  H394  1  0.51304069  0.78499618  0.35703552  1
  O  O395  1  0.72625348  0.99434007  0.01546773  1
  H  H396  1  0.65459009  0.59640171  0.99169394  1
  C  C397  1  0.59391008  0.92800182  0.60201271  1
  C  C398  1  0.64910776  0.93819578  0.57530160  1
  H  H399  1  0.51990657  0.83168752  0.64670963  1
  C  C400  1  0.53022418  0.92731967  0.64162095  1
  C  C401  1  0.71574951  0.95240669  0.54117335  1
  C  C402  1  0.51437114  0.98514837  0.65720249  1
  C  C403  1  0.68086481  0.50774794  0.95683338  1
  C  C404  1  0.63656401  0.55179396  0.98282164  1
  C  C405  1  0.51035359  0.87399790  0.66601367  1
  C  C406  1  0.50220173  0.98189114  0.95461153  1
  O  O407  1  0.53438457  0.99188364  0.99887531  1
  C  C408  1  0.56279294  0.53926571  0.99827781  1
  C  C409  1  0.99230793  0.08958394  0.04939843  1
  C  C410  1  0.79418397  0.33218637  0.17892545  1
  C  C411  1  0.92569945  0.06744785  0.08284667  1
  O  O412  1  0.92414295  0.34445431  0.20980709  1
  C  C413  1  0.93304561  0.06822063  0.13689901  1
  C  C414  1  0.88073995  0.32136872  0.17528203  1
  C  C415  1  0.93221775  0.05511800  0.26182084  1
  H  H416  1  0.76503815  0.28360136  0.10864316  1
  C  C417  1  0.92775045  0.44741357  0.04779957  1
  O  O418  1  0.90567030  0.29196842  0.14102175  1
  H  H419  1  0.94543484  0.35567460  0.43149367  1
  C  C420  1  0.76694959  0.36771248  0.21826414  1
  C  C421  1  0.87169641  0.04421934  0.16710093  1
  H  H422  1  0.80477177  0.38848023  0.24704570  1
  Zn  Zn423  1  0.91194966  0.12356907  0.49859921  1
  C  C424  1  0.96439905  0.27033613  0.35709465  1
  C  C425  1  0.88304529  0.31068999  0.48969083  1
  C  C426  1  0.92331997  0.31441133  0.44111941  1
  H  H427  1  0.86551803  0.03760013  0.01165214  1
  C  C428  1  0.93787559  0.26573433  0.41238354  1
  C  C429  1  0.92566452  0.20858088  0.43488272  1
  C  C430  1  0.88481625  0.04066974  0.22453145  1
  C  C431  1  0.80609914  0.02127246  0.08747038  1
  H  H432  1  0.93851947  0.16988451  0.41112319  1
  H  H433  1  0.98586414  0.08524418  0.15467159  1
  H  H434  1  0.92476354  0.16466112  0.28316396  1
  C  C435  1  0.86660595  0.20850193  0.47365567  1
  Zn  Zn436  1  0.96521490  0.30731223  0.27701155  1
  C  C437  1  0.98158761  0.14663882  0.29149514  1
  O  O438  1  0.98975393  0.08778437  0.00271403  1
  C  C439  1  0.93290607  0.39283443  0.02367101  1
  C  C440  1  0.86460818  0.04412063  0.05587909  1
  C  C441  1  0.81294520  0.16186455  0.46909498  1
  H  H442  1  0.88822901  0.00656538  0.45804620  1
  C  C443  1  0.93568536  0.49346342  0.06983317  1
  H  H444  1  0.80899917  0.37402904  0.01294195  1
  C  C445  1  0.80805624  0.01967078  0.14101245  1
  Zn  Zn446  1  0.85446791  0.00025940  0.29670678  1
  C  C447  1  0.86695792  0.35920252  0.00811183  1
  C  C448  1  0.77375951  0.18069215  0.64540577  1
  C  C449  1  0.87190278  0.25145935  0.62423663  1
  C  C450  1  0.79936499  0.25132396  0.71317507  1
  H  H451  1  0.82403900  0.29232327  0.73206785  1
  H  H452  1  0.80877346  0.25572229  0.53559610  1
  O  O453  1  0.84428231  0.35043353  0.58258851  1
  C  C454  1  0.85594128  0.30510572  0.60250749  1
  H  H455  1  0.78996310  0.16286617  0.60799136  1
  C  C456  1  0.81352630  0.26484924  0.97070437  1
  H  H457  1  0.96329332  0.28589952  0.55239325  1
  C  C458  1  0.81610570  0.22652833  0.66451182  1
  C  C459  1  0.94473254  0.21898094  0.60942045  1
  H  H460  1  0.95417085  0.15559394  0.67028745  1
  H  H461  1  0.95781725  0.23145664  0.97245117  1
  H  H462  1  0.95204940  0.45701412  0.92871939  1
  C  C463  1  0.90940167  0.01444005  0.56884937  1
  O  O464  1  0.75904427  0.29825031  0.80573240  1
  O  O465  1  0.95469840  0.04124828  0.54158722  1
  C  C466  1  0.98451228  0.24531574  0.56775565  1
  O  O467  1  0.81955930  0.21734319  0.95503553  1
  C  C468  1  0.95071347  0.27743315  0.98211848  1
  O  O469  1  0.91971645  0.01127588  0.61788807  1
  C  C470  1  0.88040733  0.30467931  0.98887584  1
  C  C471  1  0.98345624  0.17111720  0.63418589  1
  C  C472  1  0.87632737  0.35879288  0.52432829  1
  O  O473  1  0.75168531  0.29329474  0.96781435  1
  C  C474  1  0.85006571  0.25749741  0.50231489  1
  C  C475  1  0.95949249  0.49895255  0.90792866  1
  O  O476  1  0.90257102  0.40268736  0.51268856  1
  C  C477  1  0.95681582  0.54571046  0.09993757  1
  H  H478  1  0.85178933  0.82850768  0.20242809  1
  C  C479  1  0.91439134  0.59696903  0.09971107  1
  C  C480  1  0.94496295  0.64313278  0.12874037  1
  C  C481  1  0.89624956  0.69449454  0.13209804  1
  C  C482  1  0.85516498  0.73542712  0.13877325  1
  H  H483  1  0.86250445  0.60125705  0.07956798  1
  O  O484  1  0.82186981  0.98659244  0.37893529  1
  H  H485  1  0.75963484  0.99895420  0.16037923  1
  C  C486  1  0.77383904  0.96951498  0.45906147  1
  C  C487  1  0.76137789  0.96963339  0.40066162  1
  C  C488  1  0.79390276  0.78093207  0.14075374  1
  O  O489  1  0.80538644  0.91114655  0.25033265  1
  C  C490  1  0.79794894  0.82247056  0.17920582  1
  C  C491  1  0.83871453  0.99068313  0.48339089  1
  C  C492  1  0.75852278  0.51994961  0.94080919  1
  C  C493  1  0.78466890  0.96660306  0.57001382  1
  C  C494  1  0.90809888  0.58238121  0.86412939  1
  C  C495  1  0.89943008  0.53875101  0.90198201  1
  C  C496  1  0.98216831  0.59515059  0.84382246  1
  C  C497  1  0.82320568  0.52687370  0.92448669  1
  H  H498  1  0.86105323  0.60973778  0.85451261  1
  H  H499  1  0.79119312  0.96360636  0.61460202  1
  H  H500  1  0.98890411  0.77754750  0.71721680  1
  C  C501  1  0.99963369  0.64745517  0.81508599  1
  O  O502  1  0.98570175  0.88416648  0.68261519  1
  C  C503  1  0.84187451  0.98883154  0.53944511  1
