# generated using pymatgen
data_CuH2(CO)4
_symmetry_space_group_name_H-M   'P 1'
_cell_length_a   17.84012400
_cell_length_b   19.77039969
_cell_length_c   12.22297383
_cell_angle_alpha   90.00000000
_cell_angle_beta   90.00000000
_cell_angle_gamma   90.00000000
_symmetry_Int_Tables_number   1
_chemical_formula_structural   CuH2(CO)4
_chemical_formula_sum   'Cu24 H48 C96 O96'
_cell_volume   4311.12087412
_cell_formula_units_Z   24
loop_
 _symmetry_equiv_pos_site_id
 _symmetry_equiv_pos_as_xyz
  1  'x, y, z'
loop_
 _atom_site_type_symbol
 _atom_site_label
 _atom_site_symmetry_multiplicity
 _atom_site_fract_x
 _atom_site_fract_y
 _atom_site_fract_z
 _atom_site_occupancy
  H  H0  1  0.28174611  0.21896213  0.02678633  1
  Cu  Cu1  1  0.16417500  0.15931199  0.27547144  1
  O  O2  1  0.04113614  0.01548389  0.01437708  1
  C  C3  1  0.13882784  0.04949271  0.40376986  1
  O  O4  1  0.31119008  0.04671693  0.06479899  1
  C  C5  1  0.15539688  0.20783143  0.05422295  1
  C  C6  1  0.29230234  0.22147389  0.37492582  1
  O  O7  1  0.07912664  0.03410313  0.36630339  1
  O  O8  1  0.33825603  0.19214908  0.43819171  1
  O  O9  1  0.15943984  0.11126579  0.40327093  1
  O  O10  1  0.16497553  0.21400326  0.16025009  1
  H  H11  1  0.26684628  0.00126143  0.30811298  1
  O  O12  1  0.26305031  0.19013822  0.29942519  1
  C  C13  1  0.31839111  0.09591099  0.00815866  1
  O  O14  1  0.34775809  0.05902487  0.45439726  1
  O  O15  1  0.09326130  0.21085936  0.01434932  1
  O  O16  1  0.28705051  0.08117185  0.65079116  1
  C  C17  1  0.23235968  0.19785617  0.98496585  1
  C  C18  1  0.27143676  0.15055607  0.82426009  1
  H  H19  1  0.33299150  0.15748724  0.81339232  1
  C  C20  1  0.24119667  0.10261628  0.72271327  1
  C  C21  1  0.23039460  0.21559059  0.86285819  1
  O  O22  1  0.48773706  0.07964474  0.84630404  1
  H  H23  1  0.19951446  0.09084828  0.94033429  1
  O  O24  1  0.17783085  0.08575474  0.72319496  1
  C  C25  1  0.24960250  0.12347061  0.93986964  1
  H  H26  1  0.17489247  0.21088548  0.82572655  1
  H  H27  1  0.20526168  0.00022992  0.54550288  1
  Cu  Cu28  1  0.31347759  0.13080227  0.53792693  1
  O  O29  1  0.38476484  0.12450797  0.98855173  1
  Cu  Cu30  1  0.46877243  0.07650079  0.99767295  1
  C  C31  1  0.36447815  0.36430336  0.44737838  1
  O  O32  1  0.31452746  0.38173293  0.17073480  1
  C  C33  1  0.37583670  0.37536041  0.22868842  1
  C  C34  1  0.36839442  0.32559880  0.33775093  1
  H  H35  1  0.24126672  0.31673972  0.31220004  1
  Cu  Cu36  1  0.31206495  0.34898988  0.02720501  1
  C  C37  1  0.28974552  0.29893613  0.36986697  1
  H  H38  1  0.41232654  0.28764788  0.34214475  1
  O  O39  1  0.43419964  0.39809668  0.20567733  1
  H  H40  1  0.35104954  0.41705819  0.42365635  1
  O  O41  1  0.07604285  0.46615850  0.23105418  1
  H  H42  1  0.26564366  0.49757452  0.13184623  1
  C  C43  1  0.29308865  0.33140491  0.49216246  1
  C  C44  1  0.13458349  0.49452887  0.22794282  1
  H  H45  1  0.06482020  0.47880852  0.02680228  1
  O  O46  1  0.18497904  0.49011288  0.30391925  1
  O  O47  1  0.49211623  0.35396709  0.49537292  1
  O  O48  1  0.24009143  0.44814506  0.49849879  1
  H  H49  1  0.30442317  0.29302596  0.55551660  1
  O  O50  1  0.22762441  0.30203087  0.74938334  1
  O  O51  1  0.16225436  0.40257121  0.88644697  1
  O  O52  1  0.17888902  0.37437889  0.57986563  1
  O  O53  1  0.27096175  0.42832609  0.96332747  1
  Cu  Cu54  1  0.17643768  0.38486508  0.73208173  1
  C  C55  1  0.23439763  0.38904118  0.52442074  1
  O  O56  1  0.30880742  0.30924378  0.89104102  1
  O  O57  1  0.41145367  0.39789994  0.61337746  1
  C  C58  1  0.26170155  0.27786216  0.83283237  1
  C  C59  1  0.20196074  0.43952867  0.95086508  1
  Cu  Cu60  1  0.46946804  0.46203154  0.67453052  1
  C  C61  1  0.42755216  0.36567594  0.52504921  1
  C  C62  1  0.14738230  0.54289259  0.12611662  1
  O  O63  1  0.24940489  0.65703106  0.04866487  1
  O  O64  1  0.18532179  0.66072119  0.36381314  1
  Cu  Cu65  1  0.16804899  0.50938365  0.44371908  1
  C  C66  1  0.47670025  0.67183205  0.35116965  1
  O  O67  1  0.10682799  0.70431881  0.24481234  1
  C  C68  1  0.27860201  0.59904467  0.04837801  1
  C  C69  1  0.39191064  0.66743422  0.31581298  1
  C  C70  1  0.23084091  0.53629862  0.08326237  1
  Cu  Cu71  1  0.42416409  0.61920283  0.09767655  1
  C  C72  1  0.12210015  0.66557127  0.33154145  1
  O  O73  1  0.34416255  0.59465899  0.01889464  1
  H  H74  1  0.04327483  0.58558391  0.37227867  1
  H  H75  1  0.12894700  0.59390165  0.15403299  1
  C  C76  1  0.05819240  0.63567640  0.40278098  1
  O  O77  1  0.38178593  0.61786349  0.24657425  1
  O  O78  1  0.34219872  0.70323292  0.35173826  1
  C  C79  1  0.48182121  0.65909224  0.48028118  1
  H  H80  1  0.00052657  0.73768963  0.39399447  1
  C  C81  1  0.10841404  0.52379949  0.01526272  1
  O  O82  1  0.13169999  0.52143389  0.58198769  1
  H  H83  1  0.20553375  0.54157929  0.91137163  1
  C  C84  1  0.07281774  0.55994239  0.58840306  1
  O  O85  1  0.12925467  0.62170634  0.89014474  1
  C  C86  1  0.07727971  0.59148510  0.94236468  1
  O  O87  1  0.46358716  0.52685712  0.55405916  1
  Cu  Cu88  1  0.19290693  0.69089094  0.92996966  1
  H  H89  1  0.10806808  0.67442041  0.56398770  1
  C  C90  1  0.18634379  0.50913340  0.98073072  1
  O  O91  1  0.01530880  0.53871415  0.62695272  1
  H  H92  1  0.42971019  0.63646497  0.51837564  1
  O  O93  1  0.47529126  0.74738346  0.62532622  1
  O  O94  1  0.01566423  0.60793103  0.95334529  1
  C  C95  1  0.06685989  0.63560453  0.53412828  1
  O  O96  1  0.47909522  0.62392781  0.96442585  1
  C  C97  1  0.17071103  0.92033517  0.41207390  1
  O  O98  1  0.20213345  0.86431232  0.19461684  1
  H  H99  1  0.28611778  0.87119230  0.42842333  1
  C  C100  1  0.25421694  0.90413749  0.37098273  1
  O  O101  1  0.32485679  0.87657254  0.20061503  1
  C  C102  1  0.26547185  0.88158467  0.24291800  1
  Cu  Cu103  1  0.14562728  0.78747733  0.20797209  1
  H  H104  1  0.07960561  0.89588586  0.05423629  1
  H  H105  1  0.13140524  0.92384793  0.34193366  1
  Cu  Cu106  1  0.47232963  0.94099341  0.44247431  1
  O  O107  1  0.04954124  0.83156680  0.19463683  1
  C  C108  1  0.03043912  0.86366876  0.02754250  1
  C  C109  1  0.19619218  0.99423762  0.45390839  1
  C  C110  1  0.00249061  0.82382075  0.11861720  1
  C  C111  1  0.26793311  0.97766532  0.38996534  1
  O  O112  1  0.06746767  0.84962334  0.48921300  1
  C  C113  1  0.33448299  0.99648660  0.45615098  1
  O  O114  1  0.16733489  0.86095234  0.59063062  1
  O  O115  1  0.17183307  0.86708932  0.87111196  1
  C  C116  1  0.13276181  0.81778408  0.87754559  1
  Cu  Cu117  1  0.41804066  0.95806631  0.64277229  1
  H  H118  1  0.04489146  0.90966278  0.82503839  1
  C  C119  1  0.04871170  0.81963232  0.92694874  1
  O  O120  1  0.45452497  0.97926582  0.78071042  1
  H  H121  1  0.01974277  0.76928828  0.92403554  1
  O  O122  1  0.15447061  0.75915865  0.83740134  1
  C  C123  1  0.13664432  0.87287221  0.50515279  1
  C  C124  1  0.00348842  0.87620294  0.86624208  1
  O  O125  1  0.37827028  0.95605206  0.50344730  1
  C  C126  1  0.83093991  0.23422739  0.47737269  1
  O  O127  1  0.80166237  0.07893180  0.22968418  1
  Cu  Cu128  1  0.80427792  0.16087451  0.30091617  1
  O  O129  1  0.75078078  0.02508208  0.37025078  1
  H  H130  1  0.61487221  0.01223873  0.26062525  1
  O  O131  1  0.85599517  0.19654157  0.17410543  1
  Cu  Cu132  1  0.86222075  0.05234220  0.11220707  1
  C  C133  1  0.84977012  0.18840471  0.07069579  1
  C  C134  1  0.76263746  0.02974108  0.27644308  1
  O  O135  1  0.81273411  0.23202322  0.37420951  1
  O  O136  1  0.63356653  0.09892157  0.08192559  1
  C  C137  1  0.60798550  0.04075309  0.08726746  1
  Cu  Cu138  1  0.73588306  0.11611346  0.04132043  1
  O  O139  1  0.59782687  0.20233904  0.28319855  1
  O  O140  1  0.55075568  0.01976856  0.03269568  1
  O  O141  1  0.83848327  0.13084533  0.03631779  1
  C  C142  1  0.62649113  0.15749157  0.30531983  1
  H  H143  1  0.68031819  0.16763781  0.68380684  1
  C  C144  1  0.69847077  0.06204342  0.83363185  1
  O  O145  1  0.88296380  0.18156303  0.83254104  1
  O  O146  1  0.85251615  0.18723469  0.53107502  1
  H  H147  1  0.59169488  0.10860741  0.82403334  1
  C  C148  1  0.57490074  0.02278972  0.73937711  1
  C  C149  1  0.64615164  0.12135043  0.66782318  1
  Cu  Cu150  1  0.89763601  0.10034180  0.91489265  1
  C  C151  1  0.62849721  0.07760317  0.76431476  1
  O  O152  1  0.72747321  0.11198347  0.88930390  1
  H  H153  1  0.81021203  0.24034239  0.92837457  1
  O  O154  1  0.62555805  0.11574401  0.57889129  1
  O  O155  1  0.91967031  0.02684302  0.99796171  1
  C  C156  1  0.93091325  0.23461451  0.83730026  1
  C  C157  1  0.84853303  0.24872840  0.99945420  1
  C  C158  1  0.50105420  0.02484818  0.79178576  1
  O  O159  1  0.98142057  0.24266840  0.77589410  1
  O  O160  1  0.71997828  0.00678724  0.83272759  1
  C  C161  1  0.77484536  0.44979830  0.33712523  1
  Cu  Cu162  1  0.79489768  0.45885664  0.11290761  1
  O  O163  1  0.78755497  0.41611015  0.25711560  1
  C  C164  1  0.82040628  0.31536913  0.04426111  1
  H  H165  1  0.72929120  0.32425185  0.42926778  1
  H  H166  1  0.89044869  0.35471130  0.38566150  1
  C  C167  1  0.79637951  0.41535717  0.45620239  1
  O  O168  1  0.90424703  0.44630190  0.08785323  1
  O  O169  1  0.68977125  0.35399647  0.05478316  1
  H  H170  1  0.82603566  0.31289197  0.13131172  1
  O  O171  1  0.99542103  0.41113929  0.48066267  1
  C  C172  1  0.86862900  0.37171834  0.46195751  1
  O  O173  1  0.54785510  0.48858674  0.43438268  1
  C  C174  1  0.93493910  0.40049044  0.02466230  1
  H  H175  1  0.97665240  0.26037551  0.00557951  1
  C  C176  1  0.75878970  0.34917287  0.49620088  1
  H  H177  1  0.96559569  0.45242405  0.64435371  1
  O  O178  1  0.73848006  0.34796507  0.89027695  1
  C  C179  1  0.70765103  0.36472016  0.58707360  1
  Cu  Cu180  1  0.68935378  0.41219677  0.80977612  1
  H  H181  1  0.86536671  0.36283802  0.89242135  1
  C  C182  1  0.88980913  0.34312762  0.96795780  1
  C  C183  1  0.74204265  0.34237130  0.99812005  1
  O  O184  1  0.73698688  0.38674689  0.67482022  1
  H  H185  1  0.83544107  0.31106100  0.61728051  1
  O  O186  1  0.63924739  0.35339684  0.57914894  1
  O  O187  1  0.64390601  0.48599276  0.74111449  1
  O  O188  1  0.91830925  0.43215555  0.62036419  1
  C  C189  1  0.82721202  0.30857228  0.52771395  1
  C  C190  1  0.92595868  0.27069973  0.95458097  1
  C  C191  1  0.93395235  0.40885329  0.51783145  1
  O  O192  1  0.99870357  0.40519693  0.99257267  1
  H  H193  1  0.79654547  0.45655804  0.51899612  1
  Cu  Cu194  1  0.58190797  0.41271539  0.51271840  1
  O  O195  1  0.89626909  0.68321735  0.24995625  1
  C  C196  1  0.53429766  0.60375558  0.44515189  1
  C  C197  1  0.90536737  0.66700201  0.35213916  1
  C  C198  1  0.60438689  0.62262161  0.24724413  1
  C  C199  1  0.52849758  0.61190761  0.31750842  1
  O  O200  1  0.64168000  0.57129419  0.20987500  1
  O  O201  1  0.85975982  0.63715395  0.40405829  1
  O  O202  1  0.62960927  0.67859209  0.23838196  1
  Cu  Cu203  1  0.74176041  0.56056266  0.20617703  1
  O  O204  1  0.74901849  0.60222617  0.07197429  1
  H  H205  1  0.50159804  0.72232532  0.34414120  1
  C  C206  1  0.51247888  0.53601656  0.47908582  1
  C  C207  1  0.98654458  0.68308521  0.40650879  1
  H  H208  1  0.59113048  0.61360274  0.47554598  1
  O  O209  1  0.74550563  0.50525992  0.33121784  1
  H  H210  1  0.50079744  0.56503101  0.29099599  1
  C  C211  1  0.71517676  0.70772052  0.80164225  1
  C  C212  1  0.71013209  0.59386563  0.87949018  1
  H  H213  1  0.57466271  0.66421613  0.76849421  1
  C  C214  1  0.59616973  0.64816821  0.85044469  1
  O  O215  1  0.58269069  0.73722265  0.54121308  1
  H  H216  1  0.73711955  0.57618675  0.80370400  1
  C  C217  1  0.96459314  0.71588799  0.60254433  1
  O  O218  1  0.69086003  0.71460055  0.70282026  1
  C  C219  1  0.67653361  0.66572182  0.87832766  1
  Cu  Cu220  1  0.86724301  0.72822853  0.77738891  1
  C  C221  1  0.59687805  0.52433474  0.77684897  1
  O  O222  1  0.77225702  0.73559512  0.84550673  1
  H  H223  1  0.67965546  0.69278072  0.95975092  1
  C  C224  1  0.62218992  0.57448819  0.86714331  1
  C  C225  1  0.98705740  0.66089299  0.52775578  1
  H  H226  1  0.59981980  0.55821366  0.94676923  1
  O  O227  1  0.95668044  0.70726069  0.70457065  1
  C  C228  1  0.52612232  0.67003945  0.93928971  1
  O  O229  1  0.52663858  0.72623466  0.97364680  1
  O  O230  1  0.52856982  0.52538846  0.75159476  1
  H  H231  1  0.94771473  0.61756811  0.53539169  1
  C  C232  1  0.75267905  0.56832759  0.98663240  1
  C  C233  1  0.51200860  0.72297350  0.55519594  1
  O  O234  1  0.78558437  0.51406288  0.98258436  1
  H  H235  1  0.59848450  0.90928761  0.08023973  1
  O  O236  1  0.55434292  0.93002632  0.35009272  1
  C  C237  1  0.55129603  0.89623664  0.25815098  1
  H  H238  1  0.69910382  0.90950885  0.29917152  1
  C  C239  1  0.69620939  0.91445450  0.20660798  1
  C  C240  1  0.74310203  0.85608102  0.15257201  1
  O  O241  1  0.71383120  0.82906017  0.07568158  1
  O  O242  1  0.81486375  0.84994618  0.17665428  1
  C  C243  1  0.61302662  0.92319989  0.16565944  1
  Cu  Cu244  1  0.85777927  0.76508365  0.20405100  1
  O  O245  1  0.95029654  0.78224506  0.11065599  1
  C  C246  1  0.71923253  0.99030351  0.17799049  1
  O  O247  1  0.51599660  0.84856513  0.23883440  1
  H  H248  1  0.74726848  0.99662992  0.09916185  1
  C  C249  1  0.63295426  0.99797935  0.17644571  1
  Cu  Cu250  1  0.65084331  0.78954818  0.63730872  1
  C  C251  1  0.60722082  0.97647936  0.67131165  1
  O  O252  1  0.62015790  0.87424966  0.57485932  1
  H  H253  1  0.66662333  0.98724549  0.64789927  1
  O  O254  1  0.94887274  0.77094087  0.55767998  1
  C  C255  1  0.93907212  0.85435867  0.78735057  1
  O  O256  1  0.89275882  0.81586240  0.82551345  1
  O  O257  1  0.93159130  0.87989469  0.69364469  1
  C  C258  1  0.97195761  0.91010252  0.97782254  1
  C  C259  1  0.57707318  0.91509200  0.62348340  1
  O  O260  1  0.50772911  0.90084024  0.62983746  1
  Cu  Cu261  1  0.99487964  0.85646158  0.58359428  1
  C  C262  1  0.98222599  0.98935448  0.99489086  1
  H  H263  1  0.90819483  0.89691940  0.99993559  1
