# generated using pymatgen
data_Cu2H4C8O9
_symmetry_space_group_name_H-M   'P 1'
_cell_length_a   21.72368410
_cell_length_b   14.66437675
_cell_length_c   28.48979819
_cell_angle_alpha   90.00000000
_cell_angle_beta   90.00000000
_cell_angle_gamma   90.00000000
_symmetry_Int_Tables_number   1
_chemical_formula_structural   Cu2H4C8O9
_chemical_formula_sum   'Cu48 H96 C192 O216'
_cell_volume   9075.83227248
_cell_formula_units_Z   24
loop_
 _symmetry_equiv_pos_site_id
 _symmetry_equiv_pos_as_xyz
  1  'x, y, z'
loop_
 _atom_site_type_symbol
 _atom_site_label
 _atom_site_symmetry_multiplicity
 _atom_site_fract_x
 _atom_site_fract_y
 _atom_site_fract_z
 _atom_site_occupancy
  O  O0  1  0.47567891  0.11268095  0.24921283  1
  O  O1  1  0.36842623  0.30825345  0.09995564  1
  H  H2  1  0.17573485  0.01014559  0.16998463  1
  O  O3  1  0.26010379  0.43877362  0.12568943  1
  C  C4  1  0.34985814  0.05913521  0.00065011  1
  C  C5  1  0.24671938  0.12646206  0.00122422  1
  O  O6  1  0.09625124  0.07376039  0.18209088  1
  H  H7  1  0.38625048  0.08552444  0.24404845  1
  C  C8  1  0.05168803  0.03160438  0.15557965  1
  Cu  Cu9  1  0.43092253  0.25183280  0.14279907  1
  O  O10  1  0.21858109  0.05608217  0.02077698  1
  C  C11  1  0.37276967  0.43234051  0.18927450  1
  O  O12  1  0.35035782  0.08707208  0.08300262  1
  H  H13  1  0.28084810  0.16837410  0.08076147  1
  O  O14  1  0.42851724  0.46452699  0.20809971  1
  C  C15  1  0.35295094  0.26820765  0.06164217  1
  O  O16  1  0.38245121  0.27137543  0.19445171  1
  C  C17  1  0.34431622  0.33786499  0.20529542  1
  H  H18  1  0.06995194  0.05774156  0.12153572  1
  C  C19  1  0.32555252  0.16603022  0.06338825  1
  C  C20  1  0.01754439  0.48828200  0.19026524  1
  H  H21  1  0.38761612  0.42403895  0.15175828  1
  O  O22  1  0.35807454  0.30889427  0.02602539  1
  C  C23  1  0.35205372  0.01230272  0.04657488  1
  O  O24  1  0.29874603  0.32563158  0.22703206  1
  H  H25  1  0.05750981  0.44394310  0.17784454  1
  C  C26  1  0.31753186  0.14916703  0.00900316  1
  O  O27  1  0.47658386  0.44379603  0.07633982  1
  H  H28  1  0.28112287  0.49347227  0.21269866  1
  C  C29  1  0.14171831  0.00126195  0.19812813  1
  C  C30  1  0.17122870  0.00648283  0.24707381  1
  O  O31  1  0.49140527  0.24184124  0.09845741  1
  H  H32  1  0.02178094  0.32807580  0.24867395  1
  C  C33  1  0.32027182  0.23740793  0.49086258  1
  O  O34  1  0.44229442  0.33456899  0.39135540  1
  C  C35  1  0.22387056  0.10921082  0.40876827  1
  H  H36  1  0.22599516  0.25683329  0.42536641  1
  C  C37  1  0.42298523  0.41981609  0.40117087  1
  C  C38  1  0.46982628  0.48936601  0.42485579  1
  O  O39  1  0.21099277  0.12825526  0.36469734  1
  O  O40  1  0.12373335  0.48052095  0.32253673  1
  O  O41  1  0.16426370  0.32473973  0.48490766  1
  C  C42  1  0.42095943  0.03774087  0.31090245  1
  O  O43  1  0.36943167  0.43644937  0.39573219  1
  C  C44  1  0.09722243  0.42989906  0.29241479  1
  H  H45  1  0.19424285  0.10773166  0.49840430  1
  O  O46  1  0.45583850  0.02992325  0.40860859  1
  O  O47  1  0.32352416  0.06127997  0.33704606  1
  O  O48  1  0.30441941  0.21160422  0.44154263  1
  Cu  Cu49  1  0.25097289  0.09186285  0.30863713  1
  C  C50  1  0.42045089  0.04258841  0.25933127  1
  C  C51  1  0.24103310  0.19109312  0.44099789  1
  O  O52  1  0.38521040  0.17954010  0.34504186  1
  C  C53  1  0.03102087  0.46897935  0.27458555  1
  C  C54  1  0.37442675  0.09882951  0.33042567  1
  C  C55  1  0.21462553  0.17710717  0.49247092  1
  H  H56  1  0.47172844  0.18578631  0.30710782  1
  Cu  Cu57  1  0.41469851  0.21533200  0.40593538  1
  O  O58  1  0.43115945  0.22912914  0.47275077  1
  O  O59  1  0.20276051  0.07680847  0.25533895  1
  O  O60  1  0.21642816  0.03368259  0.42231447  1
  C  C61  1  0.49142687  0.07454616  0.38363582  1
  C  C62  1  0.48724725  0.05570455  0.32772041  1
  H  H63  1  0.30784238  0.30984861  0.49174129  1
  O  O64  1  0.12020806  0.37043855  0.26949761  1
  H  H65  1  0.00522543  0.49581136  0.30486653  1
  O  O66  1  0.12830591  0.24366253  0.54356448  1
  Cu  Cu67  1  0.37521340  0.25652575  0.59803603  1
  O  O68  1  0.15463210  0.26406475  0.67403534  1
  C  C69  1  0.45039525  0.45368208  0.51717941  1
  H  H70  1  0.18243657  0.42546945  0.71169191  1
  C  C71  1  0.26700764  0.22663173  0.56739076  1
  O  O72  1  0.44617962  0.30514688  0.69081905  1
  C  C73  1  0.22311156  0.37946975  0.71302367  1
  O  O74  1  0.48699014  0.39444607  0.51764470  1
  O  O75  1  0.39715058  0.19896923  0.54251585  1
  O  O76  1  0.30403890  0.29101469  0.57524718  1
  Cu  Cu77  1  0.15228668  0.25724464  0.60689664  1
  C  C78  1  0.20220382  0.27983854  0.70175069  1
  H  H79  1  0.02795444  0.37899753  0.71855351  1
  O  O80  1  0.22958316  0.19887344  0.59500874  1
  H  H81  1  0.29318360  0.11742552  0.52087124  1
  O  O82  1  0.26809737  0.42954159  0.68142460  1
  O  O83  1  0.44906792  0.23697175  0.62180602  1
  C  C84  1  0.06546281  0.02124789  0.65499227  1
  Cu  Cu85  1  0.03511019  0.06159712  0.74620016  1
  O  O86  1  0.08735610  0.07733176  0.63025336  1
  O  O87  1  0.22456296  0.21638674  0.72354136  1
  C  C88  1  0.47208876  0.28638186  0.65553152  1
  C  C89  1  0.27568273  0.18791739  0.51845929  1
  O  O90  1  0.01976173  0.03715566  0.68208549  1
  O  O91  1  0.37971166  0.49576193  0.64439506  1
  C  C92  1  0.16611937  0.25676719  0.50702355  1
  O  O93  1  0.41394094  0.46581366  0.55355245  1
  C  C94  1  0.31449279  0.46847896  0.70631234  1
  C  C95  1  0.39001885  0.22226694  0.50205056  1
  C  C96  1  0.21778735  0.44068291  0.79113513  1
  O  O97  1  0.05092188  0.07108242  0.81367129  1
  O  O98  1  0.20492023  0.41194807  0.83176985  1
  H  H99  1  0.35609476  0.37036139  0.75792811  1
  C  C100  1  0.01161935  0.05385081  0.84334181  1
  O  O101  1  0.33060002  0.03758639  0.91907965  1
  H  H102  1  0.25491528  0.31815512  0.77588817  1
  O  O103  1  0.03342765  0.28597480  0.78506075  1
  Cu  Cu104  1  0.04295335  0.04308011  0.93580459  1
  O  O105  1  0.38418288  0.48350236  0.82157308  1
  C  C106  1  0.32119404  0.42735666  0.75563716  1
  C  C107  1  0.32107589  0.00787283  0.95975037  1
  Cu  Cu108  1  0.20647043  0.49065391  0.88159770  1
  C  C109  1  0.25302999  0.38880306  0.75799915  1
  Cu  Cu110  1  0.40603757  0.02263310  0.88551942  1
  O  O111  1  0.48528182  0.00871725  0.85721279  1
  H  H112  1  0.33333140  0.20756593  0.98735162  1
  O  O113  1  0.02261646  0.00236512  0.87604283  1
  C  C114  1  0.34262546  0.49727157  0.79637716  1
  O  O115  1  0.22024640  0.17433492  0.97481693  1
  H  H116  1  0.39631014  0.08037469  0.99088630  1
  C  C117  1  0.00910876  0.25659744  0.75035538  1
  C  C118  1  0.03228553  0.53818604  0.23486818  1
  O  O119  1  0.30219168  0.56737918  0.10598265  1
  C  C120  1  0.34600525  0.67286340  0.18285184  1
  O  O121  1  0.02772463  0.79899057  0.10600309  1
  H  H122  1  0.46197318  0.59167345  0.04337459  1
  O  O123  1  0.23834367  0.83757088  0.03670346  1
  Cu  Cu124  1  0.26584750  0.68656510  0.11119268  1
  O  O125  1  0.42681555  0.94476648  0.18925238  1
  C  C126  1  0.40590974  0.94179556  0.04720008  1
  O  O127  1  0.14088584  0.77592203  0.14534864  1
  O  O128  1  0.38880529  0.85750423  0.05844304  1
  Cu  Cu129  1  0.06538713  0.70379629  0.14699675  1
  C  C130  1  0.22368089  0.75605807  0.02650719  1
  O  O131  1  0.39059599  0.72480633  0.17045205  1
  H  H132  1  0.30965191  0.97077463  0.05007431  1
  O  O133  1  0.10252816  0.61459174  0.18681968  1
  C  C134  1  0.32030527  0.50727081  0.18865173  1
  Cu  Cu135  1  0.38946750  0.79363079  0.11250980  1
  O  O136  1  0.29323072  0.69193321  0.17268332  1
  C  C137  1  0.42683919  0.56541375  0.20910761  1
  H  H138  1  0.01472870  0.89683772  0.17742420  1
  C  C139  1  0.04511936  0.88011830  0.10558886  1
  C  C140  1  0.08797186  0.59610660  0.22763213  1
  O  O141  1  0.45839145  0.95536106  0.03601246  1
  C  C142  1  0.15390233  0.84482494  0.16889214  1
  Cu  Cu143  1  0.47990869  0.87059756  0.15204275  1
  C  C144  1  0.11085470  0.91409057  0.18772860  1
  C  C145  1  0.35896233  0.58535121  0.20787185  1
  O  O146  1  0.20507241  0.85554088  0.18977565  1
  O  O147  1  0.44915962  0.71072382  0.08962426  1
  C  C148  1  0.42376915  0.94717418  0.23451546  1
  H  H149  1  0.44997543  0.57475137  0.17372658  1
  C  C150  1  0.05438314  0.92415307  0.15835769  1
  O  O151  1  0.05540876  0.92503500  0.07099236  1
  H  H152  1  0.09035554  0.89128958  0.22122597  1
  O  O153  1  0.23762316  0.68919098  0.05020998  1
  C  C154  1  0.29241075  0.50102168  0.13543372  1
  H  H155  1  0.34061203  0.60266143  0.24318586  1
  C  C156  1  0.46132853  0.62068252  0.24989660  1
  O  O157  1  0.01579578  0.82119292  0.43286330  1
  O  O158  1  0.22604476  0.68985893  0.41001496  1
  C  C159  1  0.23259873  0.74532518  0.44662944  1
  C  C160  1  0.00578157  0.66917210  0.36983030  1
  Cu  Cu161  1  0.09139207  0.75500610  0.42269814  1
  O  O162  1  0.05732807  0.71382238  0.36816808  1
  H  H163  1  0.26109921  0.89106165  0.44126160  1
  O  O164  1  0.43652162  0.63919632  0.29023904  1
  H  H165  1  0.40739692  0.96486969  0.32084588  1
  C  C166  1  0.18605551  0.76538151  0.48328467  1
  C  C167  1  0.37593572  0.79804896  0.38368502  1
  C  C168  1  0.47819488  0.61602892  0.48104001  1
  O  O169  1  0.42782711  0.87793850  0.25595462  1
  O  O170  1  0.49934644  0.56070472  0.40374365  1
  C  C171  1  0.28092184  0.82189401  0.43848359  1
  C  C172  1  0.28036563  0.71133477  0.37106206  1
  O  O173  1  0.24084237  0.79562064  0.30784100  1
  H  H174  1  0.31165681  0.65183217  0.37342289  1
  Cu  Cu175  1  0.17739500  0.56880064  0.30444354  1
  H  H176  1  0.43823799  0.66670098  0.48250441  1
  Cu  Cu177  1  0.46780172  0.90934362  0.42758738  1
  C  C178  1  0.25120219  0.71729412  0.32270428  1
  C  C179  1  0.30759433  0.79472768  0.38869862  1
  O  O180  1  0.40021701  0.87327800  0.39053369  1
  H  H181  1  0.26970467  0.69159684  0.46440673  1
  H  H182  1  0.28858896  0.85370748  0.36819198  1
  O  O183  1  0.48600445  0.79554649  0.44883960  1
  O  O184  1  0.23494042  0.65256112  0.29765357  1
  O  O185  1  0.40087389  0.72861856  0.36608802  1
  O  O186  1  0.12992143  0.78228611  0.47729313  1
  H  H187  1  0.00009632  0.85192014  0.34035802  1
  O  O188  1  0.17575275  0.93846543  0.27198482  1
  Cu  Cu189  1  0.48076223  0.69485429  0.33981708  1
  C  C190  1  0.32930613  0.83553492  0.48124304  1
  O  O191  1  0.00256291  0.59173837  0.38289538  1
  O  O192  1  0.00326654  0.82077251  0.25134870  1
  H  H193  1  0.39548750  0.53869224  0.46778798  1
  O  O194  1  0.36082008  0.90337035  0.48399570  1
  C  C195  1  0.44529642  0.52181085  0.47383847  1
  O  O196  1  0.11751937  0.62732349  0.26298724  1
  Cu  Cu197  1  0.21942829  0.83325897  0.25030080  1
  H  H198  1  0.18905465  0.92912348  0.67060583  1
  C  C199  1  0.05550032  0.82740593  0.66027883  1
  O  O200  1  0.20719120  0.74595182  0.52356266  1
  C  C201  1  0.21523611  0.76826933  0.64934968  1
  H  H202  1  0.16850947  0.76215935  0.71786331  1
  O  O203  1  0.09192457  0.75474997  0.67107939  1
  O  O204  1  0.22069608  0.82467464  0.61044715  1
  O  O205  1  0.39737380  0.57949365  0.70531811  1
  C  C206  1  0.15865087  0.79229960  0.68162757  1
  Cu  Cu207  1  0.46941245  0.58582248  0.74422114  1
  O  O208  1  0.32850511  0.77844010  0.51454497  1
  O  O209  1  0.25162829  0.71098034  0.65760059  1
  Cu  Cu210  1  0.27017099  0.79659469  0.56101044  1
  H  H211  1  0.28200005  0.53331601  0.71270958  1
  Cu  Cu212  1  0.43229241  0.54735051  0.60187714  1
  C  C213  1  0.36978216  0.51340872  0.68677196  1
  H  H214  1  0.04335380  0.83752893  0.70077079  1
  C  C215  1  0.13371064  0.92351213  0.73017747  1
  H  H216  1  0.11269529  0.90584172  0.61156355  1
  O  O217  1  0.47160833  0.62650596  0.56048865  1
  C  C218  1  0.09319894  0.91570840  0.64860042  1
  H  H219  1  0.48837378  0.74258161  0.60207475  1
  O  O220  1  0.43851283  0.88146297  0.64443719  1
  C  C221  1  0.14660341  0.89120091  0.68070554  1
  O  O222  1  0.08191013  0.94485224  0.74520009  1
  C  C223  1  0.48803578  0.85468258  0.65634992  1
  H  H224  1  0.17875948  0.66842500  0.98289715  1
  H  H225  1  0.11789818  0.79758494  0.89311051  1
  C  C226  1  0.15307720  0.82398687  0.91663690  1
  C  C227  1  0.24601713  0.73919315  0.94126765  1
  O  O228  1  0.10839927  0.96122806  0.94067783  1
  O  O229  1  0.04930367  0.58311357  0.87238561  1
  C  C230  1  0.23210799  0.78034649  0.85535032  1
  O  O231  1  0.14393490  0.78155284  0.96658223  1
  C  C232  1  0.21955578  0.80463457  0.90518239  1
  O  O233  1  0.30787968  0.60083658  0.92790399  1
  O  O234  1  0.20491632  0.82372055  0.82408781  1
  C  C235  1  0.45948021  0.83972424  0.81969592  1
  O  O236  1  0.26457402  0.70980958  0.84734313  1
  O  O237  1  0.21107461  0.57023577  0.92918967  1
  C  C238  1  0.25643895  0.62632404  0.93010245  1
  C  C239  1  0.14456209  0.92782411  0.91086168  1
  O  O240  1  0.37237754  0.91279352  0.85382405  1
  O  O241  1  0.17592652  0.97611986  0.88431214  1
  O  O242  1  0.38049074  0.76950944  0.86921101  1
  Cu  Cu243  1  0.23307849  0.60854273  0.81763399  1
  C  C244  1  0.19684366  0.74154937  0.98080021  1
  O  O245  1  0.47892322  0.74567104  0.79358146  1
  C  C246  1  0.39888293  0.84047347  0.85008439  1
  H  H247  1  0.29466632  0.75800683  0.94991176  1
  H  H248  1  0.24779448  0.87018417  0.90652539  1
  Cu  Cu249  1  0.17586467  0.95264881  0.81752093  1
  Cu  Cu250  1  0.34669019  0.68668693  0.82889892  1
  O  O251  1  0.18145972  0.93294337  0.75436429  1
  O  O252  1  0.29505898  0.93709578  0.97056727  1
  O  O253  1  0.31740348  0.58274547  0.79414146  1
  O  O254  1  0.09552179  0.68487385  0.82040927  1
  H  H255  1  0.45803514  0.89088351  0.78944289  1
  C  C256  1  0.07318198  0.63258313  0.84595272  1
  O  O257  1  0.20313302  0.51996883  0.78105481  1
  Cu  Cu258  1  0.21324934  0.93760000  0.99738520  1
  H  H259  1  0.63597215  0.11354143  0.12725770  1
  C  C260  1  0.54565420  0.20854372  0.10789569  1
  O  O261  1  0.57862980  0.24333813  0.13445965  1
  H  H262  1  0.57171442  0.08395625  0.00186894  1
  C  C263  1  0.79809457  0.30853353  0.09367089  1
  O  O264  1  0.79887165  0.07012825  0.06923811  1
  O  O265  1  0.72260483  0.29546108  0.03738595  1
  H  H266  1  0.72017828  0.18733628  0.12755795  1
  O  O267  1  0.94457639  0.02975539  0.18625046  1
  O  O268  1  0.65855670  0.04054530  0.07628277  1
  C  C269  1  0.82814779  0.13937420  0.07044874  1
  O  O270  1  0.81987781  0.31501416  0.01301434  1
  H  H271  1  0.68773256  0.15010077  0.04325877  1
  C  C272  1  0.65592561  0.09905292  0.02662797  1
  O  O273  1  0.96461135  0.11292579  0.12561701  1
  C  C274  1  0.59308376  0.13398502  0.02578440  1
  O  O275  1  0.52879181  0.25069546  0.00633406  1
  C  C276  1  0.56310600  0.12195140  0.07440077  1
  O  O277  1  0.83317724  0.10861743  0.19936710  1
  C  C278  1  0.77795460  0.30741336  0.04399193  1
  C  C279  1  0.76419359  0.19771988  0.14750400  1
  H  H280  1  0.79394669  0.45540248  0.06464323  1
  O  O281  1  0.86737075  0.15870196  0.04130760  1
  C  C282  1  0.76008161  0.36050542  0.12725150  1
  C  C283  1  0.61011141  0.06396055  0.10296741  1
  C  C284  1  0.81716611  0.21333278  0.11256079  1
  O  O285  1  0.73976758  0.30642875  0.15647454  1
  H  H286  1  0.85909670  0.21509404  0.13602343  1
  H  H287  1  0.84159653  0.34810265  0.09549574  1
  O  O288  1  0.73643751  0.11574573  0.21536455  1
  Cu  Cu289  1  0.66632245  0.37448827  0.00993958  1
  C  C290  1  0.75339113  0.46026013  0.12092351  1
  C  C291  1  0.78045345  0.13909250  0.18831403  1
  O  O292  1  0.97746672  0.40770976  0.20920161  1
  H  H293  1  0.51966139  0.07881564  0.06943890  1
  Cu  Cu294  1  0.61312472  0.05816785  0.22339866  1
  C  C295  1  0.58224350  0.22277101  0.00153201  1
  C  C296  1  0.57667262  0.00160267  0.13485439  1
  C  C297  1  0.98092110  0.06461826  0.15568011  1
  Cu  Cu298  1  0.85939885  0.00110145  0.18076816  1
  Cu  Cu299  1  0.50095841  0.34460141  0.04094743  1
  O  O300  1  0.64200384  0.14503649  0.44451597  1
  C  C301  1  0.68388701  0.08351240  0.44473547  1
  C  C302  1  0.73540408  0.21683108  0.36948208  1
  O  O303  1  0.68258282  0.24964536  0.36875970  1
  H  H304  1  0.73004124  0.23360851  0.44752690  1
  H  H305  1  0.51163085  0.44092525  0.43042506  1
  O  O306  1  0.79205199  0.35676763  0.46759444  1
  C  C307  1  0.74263818  0.09862721  0.42773555  1
  C  C308  1  0.82719371  0.30887225  0.44814502  1
  O  O309  1  0.57470048  0.22990367  0.32599691  1
  O  O310  1  0.61108239  0.15135454  0.26848299  1
  O  O311  1  0.91524150  0.12689459  0.43875213  1
  O  O312  1  0.76517779  0.18843519  0.33483077  1
  C  C313  1  0.56719432  0.17559710  0.29203949  1
  H  H314  1  0.84626793  0.22203319  0.38413869  1
  C  C315  1  0.86456665  0.14818632  0.45269550  1
  C  C316  1  0.82472011  0.21819356  0.41975379  1
  Cu  Cu317  1  0.60561982  0.18582567  0.38348631  1
  C  C318  1  0.75551333  0.19320346  0.41865507  1
  Cu  Cu319  1  0.73949941  0.14570266  0.27823733  1
  H  H320  1  0.87436967  0.34117490  0.44898108  1
  O  O321  1  0.52822377  0.13000575  0.39781325  1
  O  O322  1  0.72532394  0.02740018  0.29744742  1
  H  H323  1  0.77579243  0.04328826  0.42380199  1
  C  C324  1  0.50392582  0.13304411  0.28968333  1
  O  O325  1  0.92114329  0.26885518  0.28302268  1
  C  C326  1  0.94250003  0.34166562  0.29510054  1
  O  O327  1  0.93357290  0.37786922  0.33347846  1
  O  O328  1  0.66980328  0.00511293  0.46131886  1
  O  O329  1  0.84501351  0.13004365  0.49489329  1
  C  C330  1  0.99145029  0.38971489  0.25494355  1
  C  C331  1  0.57339449  0.28147861  0.70100572  1
  O  O332  1  0.70455057  0.49099817  0.69073411  1
  O  O333  1  0.95486961  0.35175490  0.55176498  1
  C  C334  1  0.54441822  0.29239372  0.65529224  1
  C  C335  1  0.80545180  0.05135812  0.59297910  1
  C  C336  1  0.63969254  0.37770809  0.65508419  1
  C  C337  1  0.63408932  0.33638869  0.70492065  1
  H  H338  1  0.66985476  0.32699868  0.63192935  1
  O  O339  1  0.58609806  0.36568082  0.62998835  1
  O  O340  1  0.58635949  0.12173926  0.68193328  1
  C  C341  1  0.69482439  0.27135383  0.71616167  1
  H  H342  1  0.55812297  0.24135973  0.62883920  1
  C  C343  1  0.93257510  0.33140190  0.58766375  1
  O  O344  1  0.75515972  0.05568027  0.57886636  1
  Cu  Cu345  1  0.55196061  0.00403016  0.68090640  1
  C  C346  1  0.92864367  0.37605481  0.71739407  1
  H  H347  1  0.89504289  0.33216854  0.73898729  1
  O  O348  1  0.87869245  0.28552174  0.59160288  1
  C  C349  1  0.57949305  0.18422046  0.71330546  1
  C  C350  1  0.95564988  0.37147896  0.63421984  1
  H  H351  1  0.86850538  0.33455419  0.66023320  1
  O  O352  1  0.84392705  0.11862172  0.58957749  1
  H  H353  1  0.98477152  0.43901782  0.63014567  1
  C  C354  1  0.90550840  0.38627704  0.66813258  1
  H  H355  1  0.53912252  0.31057137  0.72842938  1
  H  H356  1  0.62761451  0.39059191  0.73445619  1
  Cu  Cu357  1  0.86070926  0.20559656  0.54620911  1
  O  O358  1  0.73418443  0.25112555  0.68723452  1
  C  C359  1  0.67745611  0.46109734  0.65651649  1
  C  C360  1  0.87841300  0.47807860  0.66304642  1
  C  C361  1  0.99175472  0.32990303  0.70792962  1
  O  O362  1  0.99311118  0.17554067  0.74422072  1
  O  O363  1  0.99990600  0.31413398  0.66182596  1
  O  O364  1  0.62569766  0.26661118  0.98226067  1
  C  C365  1  0.78195203  0.07757127  0.79510501  1
  O  O366  1  0.90851140  0.43631489  0.79302687  1
  H  H367  1  0.94957316  0.17135039  0.82896341  1
  C  C368  1  0.90474690  0.08466778  0.87875475  1
  C  C369  1  0.84030288  0.12844912  0.86962599  1
  C  C370  1  0.55735046  0.47610364  0.99012656  1
  H  H371  1  0.80487704  0.08616984  0.88792276  1
  O  O372  1  0.89967490  0.07682805  0.80165159  1
  O  O373  1  0.97968158  0.12794549  0.93567068  1
  O  O374  1  0.51531865  0.42095520  0.98937473  1
  C  C375  1  0.94668510  0.09785548  0.83873984  1
  O  O376  1  0.88196832  0.10204325  0.95606634  1
  Cu  Cu377  1  0.84632649  0.20671101  0.98254215  1
  C  C378  1  0.92403201  0.11090557  0.92593998  1
  C  C379  1  0.83462832  0.23617131  0.88060681  1
  O  O380  1  0.81171772  0.24764194  0.92289179  1
  H  H381  1  0.85565490  0.18554912  0.79992351  1
  C  C382  1  0.84362183  0.11459765  0.81535402  1
  O  O383  1  0.84196422  0.30058138  0.85506582  1
  Cu  Cu384  1  0.66434679  0.14258389  0.78556878  1
  O  O385  1  0.69877913  0.24876910  0.75948730  1
  O  O386  1  0.61229258  0.45513025  0.98018453  1
  O  O387  1  0.73003108  0.09646827  0.81333335  1
  C  C388  1  0.68138704  0.06530299  0.97933990  1
  O  O389  1  0.73780478  0.04648740  0.97469516  1
  O  O390  1  0.64380375  0.05041367  0.94749397  1
  C  C391  1  0.93829135  0.45718280  0.75521976  1
  H  H392  1  0.89637783  0.00733325  0.87684921  1
  O  O393  1  0.58580785  0.16664176  0.75549193  1
  Cu  Cu394  1  0.88843472  0.49737358  0.84813977  1
  O  O395  1  0.77878780  0.03361960  0.75931720  1
  C  C396  1  0.54596890  0.68364304  0.05763433  1
  C  C397  1  0.69567327  0.81934355  0.22894199  1
  H  H398  1  0.72282697  0.88746373  0.16970873  1
  O  O399  1  0.88000920  0.88541283  0.15600576  1
  O  O400  1  0.52104273  0.97981848  0.13063410  1
  H  H401  1  0.59198763  0.66899395  0.07530109  1
  O  O402  1  0.79756392  0.89692766  0.23482504  1
  C  C403  1  0.84996162  0.81455787  0.16052920  1
  O  O404  1  0.73101130  0.66280985  0.24663798  1
  O  O405  1  0.99379860  0.63679974  0.15303853  1
  O  O406  1  0.78284882  0.74684780  0.01462113  1
  C  C407  1  0.72510428  0.75124492  0.14856760  1
  Cu  Cu408  1  0.78575029  0.97868096  0.02070788  1
  H  H409  1  0.81162152  0.75721064  0.22045251  1
  O  O410  1  0.69294147  0.68300651  0.15782621  1
  C  C411  1  0.73653191  0.82102662  0.18512683  1
  O  O412  1  0.57482219  0.71552309  0.01734175  1
  O  O413  1  0.52794758  0.78523822  0.11886300  1
  O  O414  1  0.85770912  0.74823424  0.13418164  1
  Cu  Cu415  1  0.81836513  0.73995492  0.07597498  1
  O  O416  1  0.74265278  0.77516809  0.10864634  1
  Cu  Cu417  1  0.72750567  0.58253990  0.19464361  1
  H  H418  1  0.64830873  0.85161206  0.22232288  1
  C  C419  1  0.80172257  0.81807166  0.20052252  1
  O  O420  1  0.60774004  0.97879600  0.16985208  1
  O  O421  1  0.51246229  0.64370970  0.24434151  1
  C  C422  1  0.50654969  0.73421608  0.08913348  1
  C  C423  1  0.51353468  0.58948879  0.04705360  1
  O  O424  1  0.72099132  0.50917970  0.14713302  1
  C  C425  1  0.51158805  0.51232215  0.08939767  1
  O  O426  1  0.54101253  0.51009795  0.12414453  1
  O  O427  1  0.77972800  0.50744746  0.08562733  1
  C  C428  1  0.98982883  0.54589028  0.14920192  1
  H  H429  1  0.99931490  0.59051973  0.24308043  1
  O  O430  1  0.96878059  0.51404480  0.11460325  1
  H  H431  1  0.56229061  0.61447005  0.44596258  1
  C  C432  1  0.92006626  0.76951268  0.40432151  1
  H  H433  1  0.75779723  0.84108412  0.28831338  1
  C  C434  1  0.69081128  0.72586731  0.25652880  1
  C  C435  1  0.94455976  0.72729702  0.36144924  1
  O  O436  1  0.65111722  0.71236403  0.28513859  1
  O  O437  1  0.91456156  0.87703311  0.34765074  1
  C  C438  1  0.88581850  0.85249292  0.39460749  1
  O  O439  1  0.64768804  0.96986721  0.26241580  1
  C  C440  1  0.70109776  0.96367760  0.27668707  1
  O  O441  1  0.93026474  0.72202228  0.26014988  1
  O  O442  1  0.95064274  0.76242994  0.48382682  1
  O  O443  1  0.79318711  0.76575756  0.42482169  1
  Cu  Cu444  1  0.75687008  0.77216435  0.48108930  1
  O  O445  1  0.52956270  0.75120693  0.38473931  1
  C  C446  1  0.81501501  0.83610474  0.40158496  1
  C  C447  1  0.95515814  0.81379674  0.33080191  1
  H  H448  1  0.90357624  0.90918406  0.42066145  1
  H  H449  1  0.91618331  0.67059181  0.34432858  1
  H  H450  1  0.88773569  0.71885371  0.42176382  1
  C  C451  1  0.96532701  0.78901739  0.44355825  1
  C  C452  1  0.51279301  0.73887573  0.42631230  1
  O  O453  1  0.77787539  0.87928679  0.37995303  1
  C  C454  1  0.96213438  0.78563788  0.27448817  1
  O  O455  1  0.81179831  0.86098870  0.49980917  1
  C  C456  1  0.51418774  0.63504400  0.44066914  1
  C  C457  1  0.74264331  0.88723678  0.25733201  1
  H  H458  1  0.51454344  0.99670760  0.31962131  1
  C  C459  1  0.54126792  0.63940588  0.66147171  1
  O  O460  1  0.62714601  0.71890688  0.62337026  1
  O  O461  1  0.90204277  0.89412427  0.53110573  1
  H  H462  1  0.58223661  0.76304384  0.67817722  1
  C  C463  1  0.84409845  0.88133836  0.53383435  1
  H  H464  1  0.66258876  0.83895796  0.61788446  1
  C  C465  1  0.65947287  0.81566391  0.54131367  1
  O  O466  1  0.82154228  0.91984688  0.65959683  1
  O  O467  1  0.54666637  0.56951483  0.63787332  1
  C  C468  1  0.63213110  0.80382490  0.58922680  1
  O  O469  1  0.51959757  0.88886073  0.69016529  1
  Cu  Cu470  1  0.92410019  0.65272060  0.64328545  1
  H  H471  1  0.55328500  0.81799894  0.55028421  1
  C  C472  1  0.83081603  0.95746009  0.61239518  1
  Cu  Cu473  1  0.60821008  0.55092205  0.58769938  1
  C  C474  1  0.56787025  0.83425391  0.58778374  1
  O  O475  1  0.70810801  0.77427754  0.53326642  1
  O  O476  1  0.89883662  0.53058069  0.63211989  1
  O  O477  1  0.81059611  0.67851641  0.68586629  1
  O  O478  1  0.96009429  0.76404265  0.65639304  1
  C  C479  1  0.83472212  0.70754686  0.58006495  1
  H  H480  1  0.88175802  0.96122600  0.61212125  1
  Cu  Cu481  1  0.76081088  0.58427059  0.68819980  1
  C  C482  1  0.79750505  0.76227371  0.68976206  1
  H  H483  1  0.75225065  0.76389581  0.59932734  1
  C  C484  1  0.81589001  0.82509727  0.65464703  1
  O  O485  1  0.80690340  0.65321166  0.55798087  1
  H  H486  1  0.76287044  0.90972458  0.56776638  1
  O  O487  1  0.89290315  0.69833536  0.58803989  1
  H  H488  1  0.86848644  0.82485577  0.65443811  1
  C  C489  1  0.81026115  0.88743454  0.57890568  1
  C  C490  1  0.79925855  0.79508467  0.60353056  1
  C  C491  1  0.56959806  0.93480373  0.59319670  1
  C  C492  1  0.57300949  0.72286421  0.64498251  1
  Cu  Cu493  1  0.96691409  0.81017897  0.54371674  1
  O  O494  1  0.56265759  0.58708336  0.53449860  1
  C  C495  1  0.99679170  0.81796235  0.63630022  1
  C  C496  1  0.52286180  0.78526904  0.61942034  1
  O  O497  1  0.77388588  0.79358196  0.72714078  1
  O  O498  1  0.63634786  0.86059682  0.50822824  1
  Cu  Cu499  1  0.78339371  0.90984620  0.74866475  1
  O  O500  1  0.67813662  0.50271164  0.61758826  1
  O  O501  1  0.59349239  0.97663626  0.62647772  1
  O  O502  1  0.98251258  0.85838616  0.59934943  1
  O  O503  1  0.51084166  0.65302012  0.69760222  1
  O  O504  1  0.55480036  0.97098470  0.55402727  1
  Cu  Cu505  1  0.61609126  0.98836785  0.50862478  1
  C  C506  1  0.50856080  0.61510258  0.52813239  1
  O  O507  1  0.83557620  0.50506643  0.69031162  1
  Cu  Cu508  1  0.67092699  0.62737503  0.85471752  1
  H  H509  1  0.59682643  0.76424162  0.85923886  1
  O  O510  1  0.74745032  0.59185493  0.82850086  1
  C  C511  1  0.56981426  0.80209212  0.83156453  1
  O  O512  1  0.87043923  0.55544692  0.90737432  1
  C  C513  1  0.85666226  0.76695714  0.86284617  1
  O  O514  1  0.79119106  0.51562338  0.94652602  1
  O  O515  1  0.62899897  0.64933014  0.79672463  1
  C  C516  1  0.53950370  0.73964748  0.79366492  1
  H  H517  1  0.74280508  0.67602994  0.92723546  1
  C  C518  1  0.57317506  0.65093239  0.79018551  1
  O  O519  1  0.77326739  0.87832747  0.98260893  1
  C  C520  1  0.79704306  0.80187577  0.98253018  1
  H  H521  1  0.87133498  0.71893463  0.95414426  1
  O  O522  1  0.53721637  0.58496146  0.78222137  1
  O  O523  1  0.55896051  0.95015060  0.89907846  1
  O  O524  1  0.54499316  0.66395851  0.91346057  1
  O  O525  1  0.64423509  0.67270431  0.91017870  1
  C  C526  1  0.59256357  0.65421284  0.93197900  1
  C  C527  1  0.85573155  0.82374995  0.81703988  1
  O  O528  1  0.66478869  0.89535462  0.84509261  1
  C  C529  1  0.79710425  0.63174291  0.83297917  1
  O  O530  1  0.84948904  0.60155409  0.81923264  1
  C  C531  1  0.59196419  0.63561678  0.98544569  1
  O  O532  1  0.80247971  0.86713653  0.80662973  1
  H  H533  1  0.89524233  0.71910916  0.86353741  1
  H  H534  1  0.76185429  0.75664865  0.85967201  1
  C  C535  1  0.79210181  0.67509920  0.91793637  1
  C  C536  1  0.80142306  0.70851986  0.86624628  1
  O  O537  1  0.89567120  0.82481125  0.78896598  1
  C  C538  1  0.82708749  0.75576841  0.94262999  1
  O  O539  1  0.85536874  0.81119662  0.91139368  1
  C  C540  1  0.81699258  0.57348642  0.92527073  1
  C  C541  1  0.61955540  0.88257010  0.81539880  1
  H  H542  1  0.54326173  0.77714944  0.75625852  1
  Cu  Cu543  1  0.64759320  0.96663694  0.90027898  1
  O  O544  1  0.61827836  0.91374305  0.77747560  1
  H  H545  1  0.50165947  0.80397038  0.88471677  1
  C  C546  1  0.52061839  0.94474319  0.86698204  1
  O  O547  1  0.97017552  0.52254511  0.75225613  1
  H  H548  1  0.64017612  0.62199785  0.99763854  1
  C  C549  1  0.51261698  0.84911186  0.85143683  1
  H  H550  1  0.50514308  0.58582554  0.97218551  1
  C  C551  1  0.54316834  0.57542676  0.99947394  1
