# generated using pymatgen
data_Zn4H20C37O20
_symmetry_space_group_name_H-M   'P 1'
_cell_length_a   4.67797397
_cell_length_b   27.85675580
_cell_length_c   29.59111276
_cell_angle_alpha   90.00000000
_cell_angle_beta   90.00000000
_cell_angle_gamma   90.00000000
_symmetry_Int_Tables_number   1
_chemical_formula_structural   Zn4H20C37O20
_chemical_formula_sum   'Zn16 H80 C148 O80'
_cell_volume   3856.11195953
_cell_formula_units_Z   4
loop_
 _symmetry_equiv_pos_site_id
 _symmetry_equiv_pos_as_xyz
  1  'x, y, z'
loop_
 _atom_site_type_symbol
 _atom_site_label
 _atom_site_symmetry_multiplicity
 _atom_site_fract_x
 _atom_site_fract_y
 _atom_site_fract_z
 _atom_site_occupancy
  O  O0  1  0.81709276  0.13662550  0.11244782  1
  Zn  Zn1  1  0.70274592  0.08595818  0.16263274  1
  C  C2  1  0.20404158  0.20013601  0.10757591  1
  H  H3  1  0.04828613  0.19823460  0.13593102  1
  C  C4  1  0.93298147  0.13577570  0.07329275  1
  C  C5  1  0.16111528  0.17197502  0.06893344  1
  C  C6  1  0.17895554  0.10244294  0.23016046  1
  Zn  Zn7  1  0.29695661  0.20260489  0.22391869  1
  O  O8  1  0.00708772  0.07428602  0.21272800  1
  O  O9  1  0.86223340  0.10908010  0.04184467  1
  O  O10  1  0.35587908  0.12553301  0.20365708  1
  C  C11  1  0.53776374  0.21068939  0.02388962  1
  C  C12  1  0.32196513  0.17506941  0.02982777  1
  C  C13  1  0.42514220  0.23317415  0.10483465  1
  C  C14  1  0.57269626  0.23806133  0.06316087  1
  O  O15  1  0.67430662  0.01281615  0.15538298  1
  H  H16  1  0.24773548  0.15261537  0.00107384  1
  C  C17  1  0.94139241  0.02922812  0.38079816  1
  C  C18  1  0.34413393  0.08816638  0.37115744  1
  H  H19  1  0.89709342  0.03833393  0.29136860  1
  H  H20  1  0.07381872  0.20245387  0.36530748  1
  C  C21  1  0.95388884  0.18366993  0.43485866  1
  H  H22  1  0.89745814  0.10762254  0.41517565  1
  H  H23  1  0.39448670  0.07751169  0.40654493  1
  H  H24  1  0.57526426  0.13754476  0.43621626  1
  C  C25  1  0.11828343  0.16403174  0.47529231  1
  C  C26  1  0.49973417  0.12456499  0.34784666  1
  C  C27  1  0.42000585  0.12572580  0.30187037  1
  C  C28  1  0.21133691  0.09778336  0.28092005  1
  H  H29  1  0.48101077  0.21313330  0.33223374  1
  C  C30  1  0.12458886  0.06420634  0.35130564  1
  O  O31  1  0.71627577  0.14964049  0.36630304  1
  H  H32  1  0.54140923  0.14425993  0.27512072  1
  C  C33  1  0.16031921  0.20209056  0.40194508  1
  C  C34  1  0.77871895  0.14372409  0.41704163  1
  C  C35  1  0.05617283  0.06413947  0.30549848  1
  C  C36  1  0.77688566  0.22322345  0.45466594  1
  H  H37  1  0.37795499  0.18348863  0.40399879  1
  O  O38  1  0.72987615  0.00503029  0.36754485  1
  O  O39  1  0.25101624  0.11616640  0.47426924  1
  O  O40  1  0.02083938  0.02750652  0.41934510  1
  H  H41  1  0.49454562  0.02981056  0.48122765  1
  H  H42  1  0.28620111  0.19226521  0.48176873  1
  H  H43  1  0.61193144  0.23854870  0.42991398  1
  C  C44  1  0.81213573  0.24876526  0.26595535  1
  O  O45  1  0.72287857  0.20814843  0.25128561  1
  C  C46  1  0.76567743  0.04103323  0.53639268  1
  O  O47  1  0.64330578  0.18450828  0.61341178  1
  O  O48  1  0.03718092  0.14791901  0.63249109  1
  H  H49  1  0.04841482  0.06617722  0.59379808  1
  C  C50  1  0.53879889  0.13251331  0.54019113  1
  H  H51  1  0.44040924  0.16857870  0.54212705  1
  O  O52  1  0.62548508  0.23243201  0.72173575  1
  C  C53  1  0.75151331  0.11810955  0.57061157  1
  C  C54  1  0.88418936  0.07377890  0.56747471  1
  C  C55  1  0.82032258  0.15174158  0.60936929  1
  Zn  Zn56  1  0.30949494  0.20216314  0.66648347  1
  O  O57  1  0.01212515  0.18850621  0.72722703  1
  C  C58  1  0.81031325  0.21065005  0.74376712  1
  H  H59  1  0.26805014  0.22983666  0.57179994  1
  C  C60  1  0.54892950  0.05557139  0.50804914  1
  C  C61  1  0.43204591  0.10209763  0.50644273  1
  H  H62  1  0.96542420  0.16073506  0.50443247  1
  O  O63  1  0.62534784  0.22235919  0.50222568  1
  C  C64  1  0.56980768  0.01834993  0.95842860  1
  O  O65  1  0.25986248  0.11342303  0.87725013  1
  Zn  Zn66  1  0.02948358  0.07777217  0.98308413  1
  O  O67  1  0.03113069  0.13792776  0.93828324  1
  C  C68  1  0.76808062  0.20390227  0.79481074  1
  H  H69  1  0.64388007  0.18160408  0.91927570  1
  C  C70  1  0.94769998  0.17451230  0.82005877  1
  C  C71  1  0.89029145  0.17035980  0.86563623  1
  C  C72  1  0.66022397  0.19531614  0.88446350  1
  H  H73  1  0.11795158  0.15295156  0.80365820  1
  C  C74  1  0.55332572  0.22990117  0.81430490  1
  C  C75  1  0.06642756  0.13595652  0.89444255  1
  O  O76  1  0.67282867  0.22276895  0.98655559  1
  H  H77  1  0.09707023  0.21860400  0.93161242  1
  C  C78  1  0.48398035  0.22772186  0.86107273  1
  O  O79  1  0.80063006  0.02695053  0.93931591  1
  O  O80  1  0.46392273  0.04498740  0.98779484  1
  C  C81  1  0.47482784  0.43784286  0.10227579  1
  C  C82  1  0.62288776  0.43392604  0.06164733  1
  O  O83  1  0.23585953  0.46189351  0.17912831  1
  O  O84  1  0.05202612  0.38970752  0.19209398  1
  H  H85  1  0.51432200  0.47082108  0.12224052  1
  H  H86  1  0.11669330  0.33414434  0.10957796  1
  O  O87  1  0.28464612  0.31918422  0.02753728  1
  C  C88  1  0.26483034  0.36156829  0.09818670  1
  Zn  Zn89  1  0.99542690  0.31657683  0.18671561  1
  C  C90  1  0.30161395  0.40306139  0.12417961  1
  C  C91  1  0.18665153  0.41977341  0.16813606  1
  C  C92  1  0.82039544  0.47368899  0.04776481  1
  C  C93  1  0.56966916  0.39270530  0.03780925  1
  C  C94  1  0.37270195  0.35858878  0.05452990  1
  O  O95  1  0.94067023  0.46953958  0.01003117  1
  O  O96  1  0.70513072  0.29438505  0.13972580  1
  H  H97  1  0.72614807  0.26853569  0.06385870  1
  C  C98  1  0.49938063  0.26522805  0.14197488  1
  O  O99  1  0.33632675  0.26340237  0.17716077  1
  O  O100  1  0.02734841  0.26452155  0.24587628  1
  H  H101  1  0.69094613  0.38607855  0.00570474  1
  H  H102  1  0.98939850  0.26050127  0.01884154  1
  H  H103  1  0.78689090  0.31434728  0.47804566  1
  C  C104  1  0.75302614  0.32425415  0.30678756  1
  O  O105  1  0.44731743  0.42481734  0.36725207  1
  C  C106  1  0.62924760  0.40430520  0.34340891  1
  H  H107  1  0.93782456  0.25196185  0.46363817  1
  O  O108  1  0.78506197  0.42977698  0.31909269  1
  Zn  Zn109  1  0.11203533  0.47132149  0.34456274  1
  C  C110  1  0.60038426  0.35153151  0.33922221  1
  C  C111  1  0.42395500  0.32709084  0.36933083  1
  C  C112  1  0.68105695  0.27521533  0.30734201  1
  H  H113  1  0.31304919  0.35018572  0.39280968  1
  H  H114  1  0.89965799  0.34093260  0.28420229  1
  O  O115  1  0.19401072  0.25744000  0.40286570  1
  C  C116  1  0.36778682  0.27717084  0.37178939  1
  O  O117  1  0.87277792  0.39479387  0.49191080  1
  C  C118  1  0.50118326  0.25145182  0.33753573  1
  O  O119  1  0.01091104  0.49214554  0.41693975  1
  C  C120  1  0.28428914  0.30291131  0.58286032  1
  C  C121  1  0.35602052  0.34816773  0.56832410  1
  C  C122  1  0.11164130  0.48030222  0.63057466  1
  H  H123  1  0.27972308  0.38081792  0.58741139  1
  O  O124  1  0.98700793  0.33813130  0.63826865  1
  O  O125  1  0.04805869  0.26022680  0.64331506  1
  C  C126  1  0.09546025  0.29884359  0.62418832  1
  O  O127  1  0.96407278  0.45883182  0.66005947  1
  Zn  Zn128  1  0.04881702  0.38995978  0.68723434  1
  C  C129  1  0.54542192  0.26290329  0.52183720  1
  C  C130  1  0.36213531  0.26232888  0.55991271  1
  C  C131  1  0.52198479  0.34958482  0.52874127  1
  O  O132  1  0.38495243  0.41035692  0.73487601  1
  O  O133  1  0.21100935  0.45971312  0.59655959  1
  O  O134  1  0.53492964  0.43849533  0.52074049  1
  Zn  Zn135  1  0.10003020  0.46129566  0.52564992  1
  O  O136  1  0.75625491  0.36235579  0.74093802  1
  C  C137  1  0.62987967  0.30938522  0.50703560  1
  C  C138  1  0.63671052  0.39681105  0.51131041  1
  C  C139  1  0.56450825  0.38784016  0.75646896  1
  C  C140  1  0.22855758  0.32642416  0.97874534  1
  H  H141  1  0.42708872  0.25221322  0.94664162  1
  H  H142  1  0.84370466  0.35108610  0.83749289  1
  H  H143  1  0.38745069  0.43671968  0.93235445  1
  H  H144  1  0.42471639  0.33531588  0.96089277  1
  H  H145  1  0.73846511  0.29417396  0.89378542  1
  C  C146  1  0.07500029  0.48487953  0.87459140  1
  C  C147  1  0.88507757  0.31831482  0.91464118  1
  C  C148  1  0.63172429  0.38859732  0.88818710  1
  C  C149  1  0.69259207  0.37829431  0.84300090  1
  C  C150  1  0.54049839  0.39883371  0.80738210  1
  C  C151  1  0.33117782  0.43323627  0.81639557  1
  C  C152  1  0.29026888  0.44558273  0.86148058  1
  H  H153  1  0.06199121  0.33120658  0.89078040  1
  C  C154  1  0.04800308  0.29127209  0.95160546  1
  O  O155  1  0.75357839  0.36404186  0.92483583  1
  C  C156  1  0.44277452  0.42537726  0.89728593  1
  H  H157  1  0.09637072  0.36023270  0.97996850  1
  H  H158  1  0.21872363  0.44841697  0.78748840  1
  C  C159  1  0.87137140  0.26995326  0.98775198  1
  O  O160  1  0.03751124  0.48614212  0.91739383  1
  H  H161  1  0.42422965  0.25200261  0.79137322  1
  C  C162  1  0.21422731  0.25337407  0.92835445  1
  O  O163  1  0.27732992  0.25694052  0.87667135  1
  H  H164  1  0.69799164  0.29580108  0.99865940  1
  H  H165  1  0.74826709  0.73929300  0.03559681  1
  H  H166  1  0.10737146  0.64751074  0.10324929  1
  O  O167  1  0.72064322  0.57558996  0.16062172  1
  H  H168  1  0.63687052  0.68223308  0.00686130  1
  O  O169  1  0.32019335  0.57135203  0.12073618  1
  O  O170  1  0.98918424  0.72267909  0.23114468  1
  H  H171  1  0.85302156  0.65836880  0.18875978  1
  C  C172  1  0.51797017  0.59477161  0.14085493  1
  C  C173  1  0.20491425  0.71874110  0.12605669  1
  C  C174  1  0.37596679  0.74515121  0.15714668  1
  C  C175  1  0.59869990  0.72266931  0.17836293  1
  C  C176  1  0.65922152  0.67388603  0.17240761  1
  C  C177  1  0.48178548  0.64657433  0.14406447  1
  C  C178  1  0.25373132  0.67001867  0.12219622  1
  O  O179  1  0.00274819  0.74098702  0.10037297  1
  Zn  Zn180  1  0.02709843  0.52307977  0.14139628  1
  C  C181  1  0.79166428  0.74888711  0.21444968  1
  O  O182  1  0.88501726  0.50541225  0.07512983  1
  H  H183  1  0.09067012  0.64228723  0.40330048  1
  C  C184  1  0.92277971  0.52091311  0.44546274  1
  C  C185  1  0.56908085  0.54978718  0.39019262  1
  C  C186  1  0.68404434  0.55439244  0.43414606  1
  C  C187  1  0.54764890  0.71577682  0.34852806  1
  O  O188  1  0.26433496  0.65748544  0.48095216  1
  O  O189  1  0.01416567  0.60773367  0.32378384  1
  C  C190  1  0.18865893  0.57535558  0.33489429  1
  O  O191  1  0.20290180  0.53647465  0.31480851  1
  C  C192  1  0.35328197  0.58084694  0.37864466  1
  C  C193  1  0.26664903  0.61739592  0.40859853  1
  O  O194  1  0.37720767  0.72153804  0.31493639  1
  H  H195  1  0.54383469  0.69571535  0.44486146  1
  C  C196  1  0.37491137  0.62039665  0.45152374  1
  C  C197  1  0.58568916  0.58804637  0.46560230  1
  H  H198  1  0.66899804  0.52608547  0.36493119  1
  Zn  Zn199  1  0.05637228  0.68201630  0.29331846  1
  O  O200  1  0.76946370  0.69146341  0.34666218  1
  H  H201  1  0.92939919  0.71283979  0.48119080  1
  O  O202  1  0.00601617  0.52260650  0.48536289  1
  C  C203  1  0.53140756  0.73410816  0.43306265  1
  C  C204  1  0.50353509  0.74617773  0.38684613  1
  C  C205  1  0.27600573  0.62434222  0.72982687  1
  H  H206  1  0.34176144  0.63414032  0.54887232  1
  C  C207  1  0.82986415  0.66259586  0.58661879  1
  H  H208  1  0.41089391  0.53151036  0.57431703  1
  H  H209  1  0.63025826  0.65172064  0.66041816  1
  H  H210  1  0.99294108  0.64795700  0.61176449  1
  C  C211  1  0.22499804  0.53114604  0.64137660  1
  C  C212  1  0.38199058  0.55145644  0.60627234  1
  C  C213  1  0.54540818  0.59404506  0.61308350  1
  C  C214  1  0.52612045  0.61817445  0.65522063  1
  C  C215  1  0.17293851  0.72611529  0.56810461  1
  C  C216  1  0.33842222  0.59619935  0.68657771  1
  O  O217  1  0.23215369  0.72597420  0.61653523  1
  H  H218  1  0.66462116  0.68866603  0.60374773  1
  H  H219  1  0.05880138  0.53836813  0.71129214  1
  O  O220  1  0.69369555  0.61560052  0.57882339  1
  C  C221  1  0.18326276  0.55324776  0.68217375  1
  C  C222  1  0.98632700  0.68748352  0.54776372  1
  C  C223  1  0.16894427  0.64931528  0.52551742  1
  H  H224  1  0.39046925  0.73539251  0.70372863  1
  O  O225  1  0.44046217  0.66022543  0.73685174  1
  H  H226  1  0.01840207  0.61704761  0.51863087  1
  C  C227  1  0.80327190  0.70949977  0.51195332  1
  H  H228  1  0.36650133  0.73405596  0.54921559  1
  H  H229  1  0.60200859  0.68882760  0.50532205  1
  H  H230  1  0.65496417  0.58448357  0.50177491  1
  C  C231  1  0.10265716  0.69804524  0.91109383  1
  C  C232  1  0.53964106  0.60181309  0.97012419  1
  C  C233  1  0.19805228  0.65280519  0.92367252  1
  O  O234  1  0.43552289  0.56307802  0.95451596  1
  C  C235  1  0.40595445  0.64990677  0.95745693  1
  H  H236  1  0.12152728  0.62172756  0.90467332  1
  C  C237  1  0.18164911  0.73793735  0.93770528  1
  C  C238  1  0.90631593  0.70325832  0.87141963  1
  C  C239  1  0.36619595  0.73884006  0.97433321  1
  Zn  Zn240  1  0.02500939  0.53715692  0.97120721  1
  Zn  Zn241  1  0.76022864  0.66991806  0.78245653  1
  O  O242  1  0.84906519  0.66563650  0.84912711  1
  C  C243  1  0.47694803  0.69199840  0.98093537  1
  O  O244  1  0.76737996  0.59930025  0.99076714  1
  O  O245  1  0.80704659  0.74252864  0.85936161  1
  O  O246  1  0.69437898  0.74631111  0.76309747  1
  O  O247  1  0.94196121  0.50893509  0.84887639  1
  O  O248  1  0.07405677  0.61761434  0.75501671  1
  H  H249  1  0.34611610  0.84833080  0.06648888  1
  H  H250  1  0.07076609  0.81071805  0.01879751  1
  O  O251  1  0.76702543  0.79166152  0.22186726  1
  C  C252  1  0.81567125  0.98531587  0.12864137  1
  C  C253  1  0.93022045  0.79073398  0.10386247  1
  C  C254  1  0.16729080  0.92401938  0.22270913  1
  C  C255  1  0.00780829  0.94971642  0.15341025  1
  C  C256  1  0.16815481  0.91827091  0.12919634  1
  C  C257  1  0.74632216  0.81245447  0.06672224  1
  C  C258  1  0.34371287  0.89116689  0.20167117  1
  H  H259  1  0.62551521  0.88874320  0.07699835  1
  O  O260  1  0.51054758  0.85179538  0.13627616  1
  C  C261  1  0.98936029  0.95587300  0.20073303  1
  C  C262  1  0.54958050  0.84981864  0.08565943  1
  H  H263  1  0.14359793  0.91491910  0.09300791  1
  H  H264  1  0.14104052  0.81050685  0.10688654  1
  C  C265  1  0.34392030  0.88640962  0.15424041  1
  O  O266  1  0.04143666  0.88861708  0.03174285  1
  H  H267  1  0.50269781  0.86819787  0.22155234  1
  H  H268  1  0.84504329  0.98228463  0.21786501  1
  C  C269  1  0.91475355  0.83545401  0.02964714  1
  H  H270  1  0.26156947  0.97595906  0.01660928  1
  H  H271  1  0.80900680  0.78988864  0.13638785  1
  O  O272  1  0.84129449  0.98888983  0.08867918  1
  H  H273  1  0.32207164  0.78221254  0.16305175  1
  C  C274  1  0.60272442  0.76957596  0.04307390  1
  H  H275  1  0.46116403  0.75296559  0.06729456  1
  O  O276  1  0.43330901  0.77736149  0.00209780  1
  C  C277  1  0.41209573  0.81985356  0.45803582  1
  H  H278  1  0.35853272  0.80722195  0.33571679  1
  C  C279  1  0.37193277  0.83169430  0.41129128  1
  C  C280  1  0.54893111  0.77073319  0.47637354  1
  C  C281  1  0.42084294  0.79699688  0.37364030  1
  C  C282  1  0.22993438  0.87866975  0.39914935  1
  C  C283  1  0.20808276  0.92710338  0.27336256  1
  Zn  Zn284  1  0.77009167  0.79854393  0.42144286  1
  O  O285  1  0.41710264  0.90787709  0.29055689  1
  Zn  Zn286  1  0.70450818  0.92719296  0.34918800  1
  O  O287  1  0.01458381  0.94857175  0.29406782  1
  O  O288  1  0.36166335  0.91671667  0.40284618  1
  O  O289  1  0.99965672  0.87583614  0.37691606  1
  H  H290  1  0.31816093  0.84402326  0.48566404  1
  O  O291  1  0.11152450  0.87818404  0.59654995  1
  O  O292  1  0.74663945  0.86576533  0.55161609  1
  C  C293  1  0.54214009  0.79487147  0.60791778  1
  H  H294  1  0.06152431  0.84211915  0.67637949  1
  C  C295  1  0.88987515  0.85666459  0.58699105  1
  Zn  Zn296  1  0.40387966  0.91659447  0.55634136  1
  C  C297  1  0.74910920  0.78642688  0.69632286  1
  C  C298  1  0.77059451  0.82318903  0.62266831  1
  C  C299  1  0.87815776  0.81892805  0.66638546  1
  H  H300  1  0.46989506  0.80112627  0.57333535  1
  O  O301  1  0.10921205  0.97846306  0.55689758  1
  O  O302  1  0.72988663  0.95882486  0.51718760  1
  O  O303  1  0.69412013  0.76337915  0.51276473  1
  C  C304  1  0.87727977  0.98898267  0.53557429  1
  H  H305  1  0.03883868  0.76153895  0.57163440  1
  C  C306  1  0.83090591  0.77895744  0.74342128  1
  C  C307  1  0.43540841  0.75740089  0.63447216  1
  C  C308  1  0.51731233  0.75786788  0.67936355  1
  H  H309  1  0.70658374  0.95254738  0.89479220  1
  O  O310  1  0.99704723  0.80621191  0.76516916  1
  Zn  Zn311  1  0.98166105  0.80916454  0.83566033  1
  C  C312  1  0.47125029  0.96469391  0.95614867  1
  H  H313  1  0.16773182  0.83926600  0.95347141  1
  C  C314  1  0.43180357  0.89243183  0.92130114  1
  O  O315  1  0.32760492  0.82443918  0.88047796  1
  C  C316  1  0.49122876  0.86045082  0.88145794  1
  C  C317  1  0.56586748  0.93725826  0.92041086  1
  O  O318  1  0.68267661  0.86571990  0.85242500  1
  C  C319  1  0.25817639  0.87560763  0.95648413  1
  H  H320  1  0.07953572  0.77214543  0.92550603  1
  H  H321  1  0.76912926  0.84581917  0.99964640  1
  C  C322  1  0.31573609  0.94879505  0.99183346  1
  C  C323  1  0.18972475  0.90102708  0.99535063  1
