# generated using pymatgen
data_Zn4H20C37O20
_symmetry_space_group_name_H-M   'P 1'
_cell_length_a   4.55850373
_cell_length_b   31.08414725
_cell_length_c   29.91618763
_cell_angle_alpha   90.00000000
_cell_angle_beta   90.00000000
_cell_angle_gamma   90.00000000
_symmetry_Int_Tables_number   1
_chemical_formula_structural   Zn4H20C37O20
_chemical_formula_sum   'Zn16 H80 C148 O80'
_cell_volume   4239.04005567
_cell_formula_units_Z   4
loop_
 _symmetry_equiv_pos_site_id
 _symmetry_equiv_pos_as_xyz
  1  'x, y, z'
loop_
 _atom_site_type_symbol
 _atom_site_label
 _atom_site_symmetry_multiplicity
 _atom_site_fract_x
 _atom_site_fract_y
 _atom_site_fract_z
 _atom_site_occupancy
  H  H0  1  0.49368470  0.22328474  0.05986558  1
  O  O1  1  0.16065273  0.20548226  0.16248113  1
  O  O2  1  0.25981496  0.02023759  0.06864111  1
  H  H3  1  0.37259491  0.09079824  0.11576773  1
  C  C4  1  0.10071537  0.04452808  0.04496659  1
  C  C5  1  0.27601950  0.17264925  0.14546890  1
  O  O6  1  0.48743433  0.15261096  0.16472636  1
  C  C7  1  0.83817585  0.16039916  0.03735131  1
  C  C8  1  0.89642641  0.11636344  0.03078293  1
  C  C9  1  0.09331081  0.09147182  0.05561865  1
  C  C10  1  0.23919694  0.11055418  0.09258076  1
  C  C11  1  0.16831286  0.15290826  0.10257877  1
  C  C12  1  0.97734536  0.17694333  0.07536570  1
  H  H13  1  0.94107788  0.21058076  0.08659488  1
  O  O14  1  0.67280293  0.18397930  0.01174732  1
  Zn  Zn15  1  0.76300417  0.19310696  0.20782012  1
  C  C16  1  0.61122569  0.23297727  0.02767244  1
  O  O17  1  0.96700880  0.03140493  0.01083721  1
  H  H18  1  0.77784436  0.09837809  0.00300009  1
  H  H19  1  0.82828741  0.24414097  0.03812709  1
  O  O20  1  0.20577649  0.08540069  0.45264795  1
  C  C21  1  0.89786507  0.19393969  0.39411515  1
  H  H22  1  0.96582883  0.14941017  0.45003734  1
  Zn  Zn23  1  0.88137067  0.04341709  0.45634280  1
  H  H24  1  0.52768528  0.12503308  0.33112848  1
  C  C25  1  0.36423816  0.09864459  0.42005894  1
  O  O26  1  0.60230522  0.08226897  0.41074870  1
  C  C27  1  0.28265915  0.18545066  0.28170165  1
  C  C28  1  0.96196871  0.19725195  0.34807382  1
  C  C29  1  0.02807692  0.15691619  0.41434602  1
  C  C30  1  0.22919140  0.13336627  0.39043160  1
  C  C31  1  0.34748618  0.14229305  0.34797282  1
  C  C32  1  0.18445772  0.17305681  0.32617595  1
  O  O33  1  0.48970193  0.16913100  0.26342328  1
  H  H34  1  0.49035127  0.18663325  0.45198396  1
  O  O35  1  0.71992378  0.22407436  0.41213256  1
  C  C36  1  0.62221168  0.21662149  0.46156745  1
  O  O37  1  0.10075504  0.21249149  0.26055309  1
  H  H38  1  0.83039846  0.21852472  0.32780685  1
  H  H39  1  0.82390819  0.20784503  0.47971307  1
  C  C40  1  0.44725542  0.24937926  0.48652997  1
  H  H41  1  0.07308214  0.09533630  0.51570148  1
  O  O42  1  0.64026488  0.21098251  0.66602182  1
  O  O43  1  0.62247822  0.01967319  0.58640105  1
  O  O44  1  0.32040392  0.15961071  0.67362339  1
  H  H45  1  0.52448599  0.09629982  0.63090004  1
  H  H46  1  0.91776431  0.21464888  0.58380219  1
  C  C47  1  0.97659486  0.11474489  0.54345212  1
  C  C48  1  0.02179618  0.16024830  0.54500590  1
  C  C49  1  0.87138885  0.17938307  0.58002426  1
  C  C50  1  0.80184718  0.09164539  0.57169012  1
  C  C51  1  0.65204225  0.11335384  0.60639404  1
  C  C52  1  0.69900205  0.15751838  0.61086254  1
  C  C53  1  0.52882265  0.17642163  0.65080653  1
  C  C54  1  0.26380911  0.22704033  0.52209595  1
  C  C55  1  0.77438407  0.04396979  0.56136073  1
  O  O56  1  0.20453248  0.18015118  0.51616178  1
  Zn  Zn57  1  0.01903110  0.20303573  0.70662919  1
  O  O58  1  0.90132617  0.02844486  0.52761407  1
  H  H59  1  0.39848131  0.21967119  0.55318419  1
  H  H60  1  0.07383324  0.24622290  0.53173734  1
  C  C61  1  0.60298628  0.20574599  0.78977946  1
  O  O62  1  0.49106718  0.07701836  0.94159322  1
  C  C63  1  0.59628225  0.14867263  0.84746865  1
  C  C64  1  0.60248733  0.09096670  0.90654470  1
  H  H65  1  0.87482882  0.19394574  0.94267732  1
  H  H66  1  0.80848301  0.13439883  0.83387476  1
  O  O67  1  0.83570158  0.07495624  0.89253772  1
  C  C68  1  0.21547586  0.14692910  0.90605500  1
  H  H69  1  0.11993952  0.13225527  0.93603780  1
  C  C70  1  0.45328209  0.12964681  0.88360801  1
  C  C71  1  0.09902490  0.18758937  0.89285231  1
  C  C72  1  0.46188853  0.18590694  0.83145982  1
  O  O73  1  0.86435836  0.20623408  0.91301403  1
  H  H74  1  0.41145035  0.21924098  0.93727516  1
  C  C75  1  0.22781165  0.20473222  0.85432247  1
  Zn  Zn76  1  0.06703975  0.03993453  0.94185813  1
  O  O77  1  0.82139469  0.18943445  0.76953463  1
  O  O78  1  0.52050955  0.24136953  0.77987044  1
  H  H79  1  0.13211898  0.23384645  0.84063813  1
  H  H80  1  0.35935955  0.31961141  0.04079967  1
  C  C81  1  0.84413889  0.29183338  0.13793080  1
  C  C82  1  0.47115324  0.40144409  0.07787272  1
  O  O83  1  0.25595944  0.42050139  0.09307300  1
  H  H84  1  0.29939436  0.36822298  0.15583329  1
  C  C85  1  0.23912396  0.28962088  0.02958033  1
  C  C86  1  0.80567929  0.33835372  0.07369948  1
  C  C87  1  0.93789047  0.30393941  0.09445275  1
  H  H88  1  0.84636396  0.34704364  0.03665358  1
  C  C89  1  0.60026506  0.36213110  0.09879559  1
  C  C90  1  0.48900862  0.35039495  0.13988457  1
  C  C91  1  0.61114638  0.31319609  0.15722741  1
  O  O92  1  0.62866031  0.41653967  0.04567513  1
  O  O93  1  0.31959376  0.31032242  0.22240268  1
  C  C94  1  0.52704291  0.29481762  0.20327102  1
  Zn  Zn95  1  0.98337884  0.46669126  0.05158262  1
  O  O96  1  0.70072150  0.26694707  0.22193369  1
  O  O97  1  0.14100570  0.27786739  0.07542391  1
  H  H98  1  0.97305497  0.26552302  0.15297068  1
  H  H99  1  0.04347738  0.29939233  0.00997150  1
  C  C100  1  0.43476190  0.26233912  0.00164664  1
  O  O101  1  0.67586352  0.28688487  0.32661395  1
  O  O102  1  0.29177083  0.32892730  0.31867796  1
  H  H103  1  0.38519231  0.28192134  0.42504399  1
  C  C104  1  0.54553788  0.38517107  0.39024445  1
  C  C105  1  0.92035813  0.38677179  0.44689638  1
  H  H106  1  0.35152128  0.40092032  0.37314867  1
  C  C107  1  0.99808425  0.34313552  0.43890853  1
  C  C108  1  0.52103886  0.31892049  0.33813157  1
  C  C109  1  0.70130663  0.40696604  0.42343292  1
  C  C110  1  0.62482724  0.34374812  0.37722918  1
  C  C111  1  0.84547039  0.32393238  0.40362782  1
  Zn  Zn112  1  0.01859847  0.28699591  0.27639681  1
  H  H113  1  0.89420904  0.29088714  0.39348336  1
  C  C114  1  0.64619046  0.45267768  0.43989826  1
  C  C115  1  0.25719710  0.27396366  0.45545323  1
  O  O116  1  0.19671415  0.32199396  0.46485371  1
  O  O117  1  0.45696770  0.47480582  0.42154614  1
  O  O118  1  0.81770369  0.46795915  0.46862828  1
  H  H119  1  0.05059230  0.40293558  0.47382918  1
  H  H120  1  0.07290399  0.25266175  0.44626229  1
  H  H121  1  0.82235825  0.29372423  0.49528954  1
  O  O122  1  0.24904129  0.41369215  0.53518372  1
  C  C123  1  0.62802249  0.28174217  0.51377014  1
  O  O124  1  0.62246720  0.41451864  0.58139272  1
  O  O125  1  0.71435955  0.27322070  0.56047746  1
  H  H126  1  0.57199709  0.35968087  0.64384215  1
  H  H127  1  0.00772317  0.34544367  0.53118796  1
  C  C128  1  0.98273621  0.29094774  0.62580188  1
  C  C129  1  0.91738182  0.29803424  0.58156291  1
  C  C130  1  0.05188377  0.33493684  0.56480348  1
  C  C131  1  0.27212989  0.35753397  0.58828614  1
  C  C132  1  0.37757402  0.34355665  0.62980918  1
  C  C133  1  0.21085472  0.31208253  0.65085374  1
  C  C134  1  0.25121663  0.30200935  0.69828809  1
  C  C135  1  0.38824217  0.39754025  0.56832843  1
  O  O136  1  0.43730229  0.32155247  0.71922562  1
  Zn  Zn137  1  0.87874534  0.45685976  0.54095804  1
  O  O138  1  0.06421526  0.27627045  0.71698617  1
  H  H139  1  0.84765218  0.26515790  0.63999989  1
  H  H140  1  0.48253414  0.30826000  0.52520249  1
  C  C141  1  0.13231439  0.46256194  0.94784288  1
  O  O142  1  0.13152160  0.30299673  0.82238208  1
  O  O143  1  0.32692802  0.48630292  0.92919959  1
  C  C144  1  0.25183780  0.33665795  0.83546266  1
  H  H145  1  0.85269778  0.30410745  0.88736417  1
  H  H146  1  0.37621872  0.41883117  0.87586242  1
  O  O147  1  0.57167730  0.32970039  0.96311893  1
  O  O148  1  0.48750777  0.34872452  0.81693179  1
  C  C149  1  0.78337533  0.35039387  0.93851417  1
  C  C150  1  0.87152351  0.39207291  0.95179255  1
  C  C151  1  0.07052541  0.41755449  0.92898765  1
  C  C152  1  0.21705337  0.39782445  0.89254472  1
  C  C153  1  0.14174934  0.35832113  0.87625230  1
  C  C154  1  0.93047532  0.33409259  0.90142048  1
  C  C155  1  0.59644888  0.28423777  0.96294486  1
  Zn  Zn156  1  0.76106967  0.30590709  0.77160941  1
  O  O157  1  0.99496932  0.47588307  0.98004552  1
  H  H158  1  0.14230172  0.26204793  0.93807211  1
  H  H159  1  0.75708910  0.40705260  0.98101327  1
  H  H160  1  0.82280931  0.26887201  0.95634762  1
  C  C161  1  0.34858638  0.25013734  0.95397010  1
  O  O162  1  0.77024542  0.67029472  0.18689926  1
  H  H163  1  0.33603521  0.71824574  0.10535446  1
  C  C164  1  0.41842353  0.66292650  0.06222086  1
  C  C165  1  0.11790886  0.65724685  0.12810016  1
  H  H166  1  0.88282374  0.60002622  0.14653536  1
  O  O167  1  0.11941116  0.71701691  0.17959040  1
  C  C168  1  0.71651351  0.72595671  0.04609203  1
  C  C169  1  0.01996645  0.61619037  0.12143954  1
  C  C170  1  0.99510063  0.68147479  0.16921193  1
  C  C171  1  0.29986782  0.68166161  0.10120654  1
  C  C172  1  0.15435200  0.59693926  0.08320511  1
  Zn  Zn173  1  0.47887880  0.71897386  0.22541522  1
  H  H174  1  0.85980432  0.71289231  0.07274472  1
  C  C175  1  0.12206890  0.55051454  0.07070456  1
  C  C176  1  0.34597312  0.61907131  0.05592477  1
  O  O177  1  0.98796882  0.52586576  0.09555158  1
  O  O178  1  0.58490790  0.68191350  0.03071878  1
  O  O179  1  0.23347643  0.53413116  0.03627571  1
  H  H180  1  0.43666757  0.60001279  0.02581411  1
  H  H181  1  0.55988312  0.74874298  0.05893248  1
  C  C182  1  0.89465869  0.74641662  0.00966656  1
  H  H183  1  0.27227974  0.70712161  0.00168855  1
  Zn  Zn184  1  0.44712429  0.53936564  0.44686493  1
  H  H185  1  0.75385527  0.68639627  0.47080620  1
  C  C186  1  0.94736073  0.70900362  0.29886047  1
  O  O187  1  0.74565922  0.69089343  0.27948430  1
  H  H188  1  0.32694221  0.65014528  0.45681660  1
  H  H189  1  0.72542711  0.64498953  0.34544365  1
  O  O190  1  0.08641029  0.58655755  0.45262269  1
  O  O191  1  0.57114844  0.72968604  0.43405123  1
  C  C192  1  0.36945612  0.70518342  0.41090640  1
  C  C193  1  0.24455141  0.66687348  0.42719076  1
  C  C194  1  0.02241367  0.64456125  0.40458427  1
  C  C195  1  0.90885460  0.65907839  0.36384339  1
  C  C196  1  0.04347151  0.69469407  0.34494086  1
  C  C197  1  0.26701372  0.71637011  0.36730511  1
  C  C198  1  0.93084731  0.60096763  0.42069184  1
  O  O199  1  0.71362985  0.58021459  0.40772077  1
  C  C200  1  0.63207853  0.71698354  0.47864311  1
  O  O201  1  0.10209859  0.73836402  0.28108212  1
  H  H202  1  0.36663729  0.74354155  0.34844913  1
  H  H203  1  0.44106466  0.71050843  0.49937823  1
  O  O204  1  0.92001738  0.65690963  0.67885024  1
  O  O205  1  0.53558391  0.69879658  0.67776520  1
  H  H206  1  0.32437648  0.70295222  0.60585451  1
  C  C207  1  0.58903905  0.64639784  0.61757394  1
  H  H208  1  0.87000980  0.59084185  0.62088297  1
  C  C209  1  0.36267858  0.61344767  0.54198302  1
  C  C210  1  0.68292337  0.66807411  0.66084184  1
  C  C211  1  0.70281273  0.60794460  0.60329290  1
  C  C212  1  0.37811533  0.67144043  0.59461134  1
  Zn  Zn213  1  0.19142880  0.68976439  0.72317242  1
  C  C214  1  0.26755379  0.65512338  0.55433473  1
  C  C215  1  0.64507373  0.54532347  0.54997850  1
  C  C216  1  0.58110033  0.59062985  0.56414635  1
  O  O217  1  0.07029473  0.67622157  0.52823136  1
  H  H218  1  0.92600072  0.71911062  0.57275744  1
  O  O219  1  0.80687894  0.51788783  0.56968589  1
  C  C220  1  0.01720113  0.72233772  0.53819136  1
  O  O221  1  0.49024393  0.53145106  0.51821010  1
  H  H222  1  0.26440751  0.60020740  0.51161492  1
  H  H223  1  0.23174928  0.74201477  0.54001441  1
  C  C224  1  0.82206931  0.74837311  0.50749103  1
  O  O225  1  0.90979385  0.67111652  0.77607060  1
  C  C226  1  0.05843983  0.71485803  0.98246332  1
  O  O227  1  0.71446201  0.59164216  0.97150256  1
  Zn  Zn228  1  0.35351675  0.54519992  0.96345161  1
  O  O229  1  0.09005803  0.58935509  0.92619249  1
  H  H230  1  0.99211436  0.63354439  0.85331311  1
  C  C231  1  0.86277391  0.60779062  0.94033313  1
  C  C232  1  0.50811159  0.66594550  0.93349226  1
  C  C233  1  0.35486979  0.69917028  0.91304444  1
  H  H234  1  0.42048824  0.65723552  0.96615272  1
  C  C235  1  0.73436880  0.64254536  0.91207771  1
  C  C236  1  0.82527867  0.65335470  0.86867014  1
  C  C237  1  0.44381813  0.70569926  0.86756069  1
  C  C238  1  0.66822428  0.68484837  0.84557114  1
  C  C239  1  0.71520318  0.69181837  0.79584738  1
  O  O240  1  0.15435961  0.72368484  0.93461273  1
  O  O241  1  0.53549195  0.71716310  0.77532590  1
  H  H242  1  0.91040918  0.68708654  0.97311008  1
  H  H243  1  0.32442844  0.73073526  0.84428990  1
  H  H244  1  0.44707428  0.84117529  0.04611094  1
  C  C245  1  0.43229875  0.79717630  0.14591660  1
  C  C246  1  0.64148481  0.82260239  0.16920501  1
  O  O247  1  0.03468714  0.92077703  0.09271542  1
  C  C248  1  0.67414832  0.81471605  0.21844057  1
  O  O249  1  0.66075035  0.91113324  0.04624163  1
  C  C250  1  0.50553669  0.83558366  0.08120469  1
  C  C251  1  0.36240660  0.80145087  0.10092292  1
  C  C252  1  0.81880552  0.90146195  0.07995796  1
  C  C253  1  0.70889298  0.86160799  0.10355893  1
  C  C254  1  0.79376310  0.85451825  0.14779396  1
  H  H255  1  0.96078628  0.87476796  0.16702594  1
  Zn  Zn256  1  0.30577464  0.95656026  0.04405058  1
  O  O257  1  0.50382199  0.78835302  0.23848725  1
  H  H258  1  0.95792554  0.81017981  0.04031028  1
  O  O259  1  0.86296053  0.83455629  0.23783469  1
  C  C260  1  0.08547244  0.78006306  0.03299380  1
  O  O261  1  0.16174424  0.77248542  0.08224337  1
  H  H262  1  0.31141004  0.77356908  0.16700776  1
  H  H263  1  0.27081864  0.79184261  0.01163479  1
  O  O264  1  0.55604178  0.80246185  0.33795935  1
  C  C265  1  0.70417143  0.89475707  0.40879650  1
  C  C266  1  0.62395175  0.95481576  0.45858423  1
  H  H267  1  0.31779461  0.79850771  0.40528104  1
  C  C268  1  0.69705976  0.83494243  0.35197304  1
  H  H269  1  0.85799702  0.91471896  0.38945755  1
  C  C270  1  0.60131828  0.85405854  0.39643400  1
  Zn  Zn271  1  0.14935879  0.81078292  0.28886840  1
  O  O272  1  0.89641982  0.85262586  0.33053167  1
  C  C273  1  0.40023196  0.82960881  0.42036870  1
  H  H274  1  0.84992400  0.79077157  0.44739580  1
  C  C275  1  0.55600725  0.90884830  0.44621617  1
  C  C276  1  0.29220886  0.84131570  0.46322354  1
  C  C277  1  0.98467902  0.77734307  0.47627008  1
  O  O278  1  0.81272093  0.97774992  0.43930359  1
  C  C279  1  0.37623258  0.88263302  0.47187796  1
  O  O280  1  0.10224704  0.82017059  0.49142527  1
  O  O281  1  0.48144555  0.96831676  0.49222971  1
  H  H282  1  0.25907519  0.89950928  0.49887918  1
  H  H283  1  0.17468320  0.75796134  0.46454798  1
  O  O284  1  0.09628477  0.76361094  0.73128366  1
  O  O285  1  0.07234542  0.91845497  0.55584088  1
  C  C286  1  0.96001251  0.90029774  0.58963215  1
  H  H287  1  0.74644662  0.86610268  0.66356251  1
  C  C288  1  0.66303872  0.77875275  0.53729157  1
  H  H289  1  0.34779439  0.84733997  0.55546675  1
  O  O290  1  0.51522628  0.76458555  0.58228947  1
  C  C291  1  0.34129365  0.79455124  0.60293004  1
  C  C292  1  0.25888072  0.83485630  0.58563286  1
  C  C293  1  0.04893739  0.85845694  0.60952257  1
  C  C294  1  0.93179824  0.84618777  0.65008313  1
  C  C295  1  0.03566842  0.80860434  0.66989968  1
  C  C296  1  0.23491805  0.78517541  0.64619953  1
  O  O297  1  0.74005709  0.91954902  0.60685563  1
  O  O298  1  0.72029921  0.80995432  0.73302743  1
  C  C299  1  0.94174858  0.79344618  0.71407091  1
  Zn  Zn300  1  0.49553589  0.95508970  0.56238292  1
  H  H301  1  0.81938061  0.80157692  0.55490221  1
  H  H302  1  0.51364267  0.79724619  0.51526930  1
  H  H303  1  0.32535115  0.75857889  0.66381278  1
  C  C304  1  0.97544563  0.81228263  0.84834089  1
  H  H305  1  0.38815797  0.78469113  0.90780611  1
  O  O306  1  0.76788598  0.82901850  0.82717246  1
  H  H307  1  0.83741925  0.89580373  0.87535999  1
  C  C308  1  0.12938757  0.94895904  0.94041351  1
  Zn  Zn309  1  0.45216686  0.78536653  0.78851145  1
  O  O310  1  0.09637382  0.77762515  0.83779785  1
  C  C311  1  0.36290835  0.87933963  0.95813920  1
  O  O312  1  0.63017485  0.81647654  0.98345763  1
  C  C313  1  0.43891332  0.83456076  0.95371184  1
  C  C314  1  0.16278313  0.90066540  0.93071119  1
  C  C315  1  0.00677055  0.87931539  0.89648651  1
  C  C316  1  0.10656012  0.83759655  0.88687745  1
  C  C317  1  0.30155531  0.81717540  0.91593073  1
  O  O318  1  0.98375520  0.97456165  0.91685816  1
  C  C319  1  0.71584302  0.77261262  0.97570863  1
  H  H320  1  0.85532615  0.77537998  0.94381412  1
  O  O321  1  0.27040322  0.96316801  0.97366503  1
  H  H322  1  0.47482354  0.90035448  0.98258352  1
  H  H323  1  0.49418756  0.75631511  0.96642881  1
