# generated using pymatgen
data_Zn4H20C37O20
_symmetry_space_group_name_H-M   'P 1'
_cell_length_a   4.75782053
_cell_length_b   29.66439486
_cell_length_c   29.75691837
_cell_angle_alpha   90.00000000
_cell_angle_beta   90.00000000
_cell_angle_gamma   90.00000000
_symmetry_Int_Tables_number   1
_chemical_formula_structural   Zn4H20C37O20
_chemical_formula_sum   'Zn16 H80 C148 O80'
_cell_volume   4199.82798658
_cell_formula_units_Z   4
loop_
 _symmetry_equiv_pos_site_id
 _symmetry_equiv_pos_as_xyz
  1  'x, y, z'
loop_
 _atom_site_type_symbol
 _atom_site_label
 _atom_site_symmetry_multiplicity
 _atom_site_fract_x
 _atom_site_fract_y
 _atom_site_fract_z
 _atom_site_occupancy
  O  O0  1  0.13026575  0.08917786  0.24052436  1
  C  C1  1  0.80840507  0.03096304  0.08413067  1
  O  O2  1  0.21723318  0.16489019  0.11974898  1
  H  H3  1  0.67972760  0.19567092  0.11027140  1
  C  C4  1  0.97070103  0.20541966  0.05510043  1
  O  O5  1  0.64562719  0.02519513  0.05080404  1
  C  C6  1  0.52079772  0.09756200  0.10570191  1
  C  C7  1  0.90242566  0.10691751  0.23234696  1
  C  C8  1  0.42804031  0.13295177  0.13285353  1
  C  C9  1  0.55465094  0.13178664  0.17469925  1
  C  C10  1  0.77659363  0.10188081  0.18772042  1
  H  H11  1  0.83090827  0.13147760  0.05050988  1
  H  H12  1  0.42182832  0.09378948  0.07273817  1
  C  C13  1  0.88393875  0.07208915  0.15681807  1
  C  C14  1  0.74684412  0.06864348  0.11502708  1
  H  H15  1  0.47068095  0.15676004  0.19778472  1
  H  H16  1  0.41467057  0.18174801  0.05988843  1
  C  C17  1  0.19795939  0.17269104  0.07414371  1
  C  C18  1  0.97844037  0.15721308  0.03755192  1
  C  C19  1  0.78045132  0.22192662  0.09031131  1
  H  H20  1  0.06984073  0.05147098  0.16872448  1
  C  C21  1  0.05389072  0.24345031  0.02511658  1
  O  O22  1  0.01206743  0.00385081  0.09096461  1
  H  H23  1  0.90108663  0.24788850  0.11230132  1
  H  H24  1  0.06688210  0.15090104  0.00227696  1
  H  H25  1  0.65152533  0.24696532  0.16322781  1
  Zn  Zn26  1  0.40244295  0.10107584  0.29716810  1
  C  C27  1  0.34085644  0.02438934  0.36305793  1
  C  C28  1  0.33105473  0.18791833  0.39952397  1
  C  C29  1  0.14198592  0.21376461  0.42472634  1
  C  C30  1  0.08794217  0.21544276  0.47030833  1
  C  C31  1  0.30668587  0.19501651  0.34757127  1
  C  C32  1  0.49752165  0.15837595  0.42372307  1
  O  O33  1  0.24236692  0.04919605  0.39203007  1
  O  O34  1  0.46094678  0.17174350  0.32241119  1
  C  C35  1  0.44670702  0.15708332  0.46980466  1
  H  H36  1  0.64908278  0.13714992  0.40633327  1
  O  O37  1  0.48981111  0.04058451  0.33218757  1
  O  O38  1  0.74919247  0.13241558  0.26025689  1
  O  O39  1  0.11868819  0.21848890  0.32930510  1
  Zn  Zn40  1  0.81002872  0.20024778  0.28103257  1
  C  C41  1  0.25396175  0.18392270  0.49286938  1
  O  O42  1  0.77306202  0.09817791  0.47638521  1
  C  C43  1  0.60534629  0.12155646  0.49718488  1
  H  H44  1  0.03024346  0.23791754  0.40328901  1
  O  O45  1  0.89224797  0.24834630  0.48487113  1
  Zn  Zn46  1  0.73059453  0.03795590  0.53164093  1
  H  H47  1  0.23526948  0.12833306  0.58678811  1
  H  H48  1  0.66254768  0.13952603  0.70337513  1
  O  O49  1  0.38560168  0.21259116  0.58440152  1
  C  C50  1  0.81811226  0.15541257  0.67941646  1
  C  C51  1  0.92291719  0.13328141  0.64177511  1
  O  O52  1  0.89933212  0.06588670  0.59870081  1
  O  O53  1  0.65825917  0.06721418  0.66016358  1
  C  C54  1  0.12301590  0.14999584  0.61178834  1
  C  C55  1  0.80483498  0.08646407  0.63277071  1
  C  C56  1  0.21416945  0.19466417  0.61599770  1
  C  C57  1  0.12498072  0.21739530  0.65415454  1
  H  H58  1  0.71094995  0.20974348  0.52799778  1
  C  C59  1  0.94244938  0.19814536  0.68538344  1
  C  C60  1  0.89857462  0.22655114  0.72639957  1
  O  O61  1  0.53113652  0.11066805  0.53588548  1
  H  H62  1  0.23493192  0.18078247  0.53154036  1
  H  H63  1  0.01010557  0.24010737  0.55572579  1
  C  C64  1  0.82211869  0.24506866  0.53177130  1
  H  H65  1  0.93974257  0.17484741  0.90084781  1
  C  C66  1  0.99996413  0.13983183  0.91113036  1
  C  C67  1  0.35605805  0.08172861  0.90028419  1
  C  C68  1  0.96833158  0.07439303  0.95548960  1
  O  O69  1  0.29537156  0.18890298  0.84086012  1
  H  H70  1  0.55182365  0.06662692  0.88260423  1
  O  O71  1  0.61741258  0.13057424  0.96528004  1
  C  C72  1  0.24725699  0.12306030  0.89017381  1
  C  C73  1  0.37825159  0.15037342  0.85143419  1
  C  C74  1  0.21823078  0.05801589  0.93581524  1
  O  O75  1  0.59884767  0.13485243  0.83440161  1
  C  C76  1  0.86373989  0.11592291  0.94372049  1
  Zn  Zn77  1  0.84444703  0.19947944  0.82233338  1
  H  H78  1  0.60589710  0.22758589  0.92107953  1
  C  C79  1  0.33652102  0.01469005  0.94876090  1
  H  H80  1  0.86133458  0.05123310  0.97986207  1
  H  H81  1  0.53712312  0.14992410  0.94212731  1
  O  O82  1  0.19404002  0.23413312  0.98162064  1
  O  O83  1  0.74820551  0.20575342  0.75389310  1
  O  O84  1  0.56820004  0.00237984  0.93380560  1
  O  O85  1  0.28812497  0.49106177  0.07432158  1
  O  O86  1  0.83644055  0.38754227  0.09223788  1
  H  H87  1  0.18906458  0.33027242  0.06892963  1
  C  C88  1  0.36298985  0.29004635  0.19146309  1
  C  C89  1  0.15420009  0.32279817  0.18446865  1
  C  C90  1  0.10904331  0.33647310  0.14049753  1
  Zn  Zn91  1  0.97557988  0.44306125  0.05445476  1
  O  O92  1  0.81698412  0.39161645  0.16618480  1
  C  C93  1  0.22983468  0.31686446  0.10275304  1
  C  C94  1  0.90286409  0.37503054  0.13240809  1
  C  C95  1  0.42783218  0.28190140  0.10858974  1
  C  C96  1  0.42808579  0.27777233  0.23992054  1
  H  H97  1  0.01920714  0.33417990  0.21411750  1
  H  H98  1  0.18007174  0.26902131  0.04385412  1
  O  O99  1  0.65359643  0.48485604  0.02683597  1
  C  C100  1  0.48843352  0.27172125  0.15493127  1
  O  O101  1  0.56462815  0.26044040  0.07738389  1
  O  O102  1  0.62957233  0.25190931  0.24814996  1
  H  H103  1  0.87007376  0.26231785  0.01213310  1
  O  O104  1  0.46825571  0.34344311  0.36473817  1
  O  O105  1  0.81955830  0.29861314  0.37542061  1
  C  C106  1  0.02531667  0.34547680  0.44674326  1
  C  C107  1  0.15770077  0.41595188  0.47687864  1
  H  H108  1  0.60457221  0.42819349  0.40285788  1
  C  C109  1  0.69862534  0.33494445  0.38446603  1
  C  C110  1  0.19304136  0.36836474  0.47837880  1
  C  C111  1  0.83335812  0.36636831  0.41817538  1
  C  C112  1  0.77309173  0.41214820  0.42314467  1
  H  H113  1  0.04042162  0.30782721  0.44677991  1
  C  C114  1  0.94468229  0.43579607  0.45193172  1
  Zn  Zn115  1  0.21035876  0.28952468  0.33984441  1
  H  H116  1  0.53974573  0.29173947  0.47714194  1
  C  C117  1  0.88926472  0.48562976  0.46002859  1
  O  O118  1  0.30562394  0.30013070  0.26909522  1
  H  H119  1  0.15949048  0.30755869  0.68686392  1
  C  C120  1  0.78031239  0.31900370  0.56501419  1
  O  O121  1  0.89997424  0.31579336  0.61192111  1
  O  O122  1  0.02848743  0.26265758  0.73577497  1
  C  C123  1  0.45197065  0.26324455  0.58601753  1
  O  O124  1  0.44062126  0.46740746  0.56258599  1
  C  C125  1  0.21685848  0.37982964  0.59956317  1
  H  H126  1  0.25400454  0.28312038  0.59377622  1
  C  C127  1  0.11847427  0.34343626  0.62416832  1
  C  C128  1  0.24006879  0.33559592  0.66625156  1
  C  C129  1  0.45443885  0.36212235  0.68434308  1
  C  C130  1  0.43060109  0.40875787  0.61653680  1
  O  O131  1  0.78795130  0.46583852  0.60950260  1
  C  C132  1  0.56407720  0.39507808  0.65627821  1
  H  H133  1  0.74487392  0.41301225  0.66784478  1
  C  C134  1  0.42310468  0.29822074  0.50962074  1
  H  H135  1  0.13403482  0.38665493  0.56785722  1
  H  H136  1  0.66517799  0.35262717  0.56834552  1
  H  H137  1  0.98197523  0.32628262  0.54541705  1
  C  C138  1  0.60725245  0.28154829  0.54614471  1
  C  C139  1  0.56576955  0.44921008  0.59475337  1
  C  C140  1  0.59910009  0.35181486  0.72800507  1
  H  H141  1  0.60720806  0.25904208  0.61393416  1
  H  H142  1  0.21267217  0.25041046  0.65892574  1
  O  O143  1  0.82574415  0.36889093  0.73780109  1
  O  O144  1  0.37960841  0.34998236  0.50639754  1
  H  H145  1  0.28384822  0.43397058  0.50032532  1
  H  H146  1  0.22711768  0.27862752  0.51059855  1
  Zn  Zn147  1  0.07602999  0.32095681  0.77973973  1
  C  C148  1  0.39591796  0.35122490  0.95270848  1
  H  H149  1  0.08521922  0.32400981  0.99321362  1
  C  C150  1  0.66591307  0.29979560  0.90883143  1
  O  O151  1  0.44133306  0.42818979  0.94977530  1
  H  H152  1  0.70598160  0.37550182  0.90661419  1
  C  C153  1  0.32140575  0.26952576  0.96169957  1
  C  C154  1  0.60991852  0.34491488  0.92168480  1
  C  C155  1  0.30241293  0.39723178  0.96826421  1
  O  O156  1  0.95920702  0.32567431  0.84938995  1
  C  C157  1  0.86789607  0.29402112  0.87229667  1
  C  C158  1  0.25742480  0.31503733  0.97073878  1
  Zn  Zn159  1  0.66508350  0.48741936  0.95322844  1
  O  O160  1  0.48163424  0.32316273  0.75537231  1
  O  O161  1  0.10734917  0.40027276  0.99494195  1
  C  C162  1  0.54025026  0.26287148  0.93071293  1
  O  O163  1  0.91238564  0.25322348  0.86408274  1
  O  O164  1  0.20993087  0.64399838  0.14717188  1
  O  O165  1  0.55477130  0.69044805  0.13475813  1
  H  H166  1  0.83064716  0.73033877  0.10476204  1
  H  H167  1  0.20771462  0.56879071  0.10102836  1
  C  C168  1  0.52922124  0.55676710  0.05148548  1
  H  H169  1  0.80126572  0.67902018  0.06342129  1
  C  C170  1  0.38852307  0.58479488  0.08124655  1
  C  C171  1  0.82692470  0.61911820  0.02223790  1
  C  C172  1  0.41594003  0.65754528  0.12370112  1
  C  C173  1  0.72361063  0.64397845  0.05820300  1
  C  C174  1  0.51047241  0.62700894  0.08591045  1
  H  H175  1  0.22516845  0.68506626  0.02666417  1
  Zn  Zn176  1  0.91712306  0.68756371  0.17466549  1
  C  C177  1  0.73543034  0.57332347  0.02358126  1
  O  O178  1  0.58269231  0.73686236  0.02721948  1
  C  C179  1  0.47203138  0.50784375  0.04968942  1
  H  H180  1  0.92399414  0.70671274  0.00011945  1
  O  O181  1  0.80259574  0.69431512  0.24381585  1
  C  C182  1  0.00654337  0.67057815  0.32915542  1
  O  O183  1  0.06849566  0.59021317  0.38866471  1
  Zn  Zn184  1  0.74500255  0.57812468  0.44255232  1
  C  C185  1  0.99093315  0.71475295  0.31185255  1
  O  O186  1  0.40693486  0.62105247  0.42314251  1
  C  C187  1  0.82859127  0.72728733  0.27006121  1
  H  H188  1  0.38364136  0.69745586  0.42163770  1
  C  C189  1  0.27471238  0.70542023  0.39005557  1
  O  O190  1  0.70536331  0.50652002  0.43725690  1
  C  C191  1  0.21037956  0.62363010  0.39405211  1
  C  C192  1  0.14888660  0.66792966  0.36955744  1
  H  H193  1  0.90957185  0.63939010  0.31524680  1
  O  O194  1  0.01294960  0.50819815  0.49147729  1
  H  H195  1  0.81662672  0.67452874  0.49646002  1
  C  C196  1  0.24147703  0.74986888  0.37522935  1
  Zn  Zn197  1  0.70349175  0.67737368  0.72920427  1
  C  C198  1  0.26151695  0.65515514  0.58837182  1
  C  C199  1  0.24484111  0.73595626  0.56249782  1
  H  H200  1  0.35727736  0.62686824  0.60684326  1
  O  O201  1  0.65096139  0.68975037  0.65518981  1
  O  O202  1  0.04732625  0.56971371  0.56653633  1
  C  C203  1  0.07509413  0.64874269  0.55250249  1
  C  C204  1  0.34012215  0.70084577  0.59142427  1
  C  C205  1  0.53004827  0.71606993  0.62810640  1
  C  C206  1  0.98198558  0.60237954  0.54173729  1
  C  C207  1  0.98164151  0.68243571  0.52214500  1
  C  C208  1  0.07366015  0.72647772  0.52617121  1
  O  O209  1  0.79381256  0.59767416  0.51161666  1
  Zn  Zn210  1  0.03414721  0.50110074  0.56321773  1
  O  O211  1  0.13490160  0.66209827  0.74174025  1
  C  C212  1  0.24310138  0.63601781  0.77034940  1
  H  H213  1  0.33058147  0.63380967  0.94013233  1
  H  H214  1  0.75790755  0.59117517  0.93136821  1
  C  C215  1  0.17851460  0.54058226  0.91266166  1
  H  H216  1  0.65945642  0.65647038  0.96076098  1
  C  C217  1  0.13356144  0.72148211  0.92297544  1
  C  C218  1  0.07656254  0.57626181  0.88200204  1
  C  C219  1  0.10426668  0.62257547  0.81457024  1
  C  C220  1  0.19551334  0.58602201  0.83962404  1
  C  C221  1  0.85393199  0.60194274  0.89861948  1
  H  H222  1  0.97911446  0.69677846  0.91069770  1
  C  C223  1  0.75378448  0.63969196  0.87561766  1
  C  C224  1  0.47276142  0.74133365  0.98247666  1
  C  C225  1  0.88343575  0.64605636  0.83329310  1
  C  C226  1  0.46905962  0.66467332  0.93971889  1
  O  O227  1  0.64966776  0.72660755  0.78148156  1
  H  H228  1  0.35788103  0.56396354  0.82727182  1
  H  H229  1  0.80029566  0.67336159  0.81055540  1
  O  O230  1  0.55974142  0.66841505  0.89217139  1
  C  C231  1  0.30319374  0.70256301  0.96136405  1
  O  O232  1  0.05988112  0.52672545  0.94835318  1
  H  H233  1  0.26923700  0.73267497  0.89525350  1
  H  H234  1  0.80265410  0.73035924  0.85456401  1
  O  O235  1  0.40203905  0.52230596  0.90006329  1
  H  H236  1  0.84959451  0.54946530  0.99983052  1
  O  O237  1  0.48110572  0.62153723  0.76152586  1
  O  O238  1  0.00257278  0.63589070  0.99088344  1
  H  H239  1  0.65643844  0.74818384  0.96123399  1
  C  C240  1  0.10209424  0.68325421  0.99519882  1
  C  C241  1  0.07582695  0.79205747  0.10420702  1
  Zn  Zn242  1  0.53360864  0.81117449  0.22462456  1
  O  O243  1  0.37931865  0.81118189  0.16368524  1
  H  H244  1  0.33709589  0.85355509  0.09489878  1
  C  C245  1  0.17650965  0.83003534  0.08333699  1
  Zn  Zn246  1  0.31859609  0.97728884  0.04662799  1
  C  C247  1  0.19109003  0.78327561  0.15155724  1
  C  C248  1  0.82843969  0.80982594  0.02363378  1
  C  C249  1  0.76032696  0.76822683  0.04349336  1
  O  O250  1  0.26762967  0.90643034  0.03763590  1
  C  C251  1  0.03370094  0.83877321  0.04319754  1
  C  C252  1  0.09722854  0.88016663  0.01782493  1
  C  C253  1  0.88024077  0.76209521  0.08649677  1
  O  O254  1  0.10326386  0.75433149  0.17838229  1
  H  H255  1  0.46278743  0.96715941  0.29448554  1
  C  C256  1  0.62296684  0.81799395  0.46466111  1
  H  H257  1  0.05462993  0.97779178  0.42340924  1
  H  H258  1  0.22713432  0.84948629  0.46245295  1
  H  H259  1  0.50624406  0.88641819  0.48174480  1
  H  H260  1  0.09555901  0.84686835  0.35965894  1
  C  C261  1  0.28508739  0.97253706  0.36245841  1
  C  C262  1  0.37825714  0.87615663  0.28573803  1
  H  H263  1  0.93727034  0.81672387  0.41118396  1
  C  C264  1  0.13424678  0.95373803  0.39690696  1
  C  C265  1  0.41097868  0.85072104  0.48299852  1
  C  C266  1  0.05166596  0.90786839  0.39886584  1
  O  O267  1  0.92135298  0.88977589  0.43420940  1
  C  C268  1  0.78993067  0.84000116  0.42994383  1
  C  C269  1  0.29948930  0.90345085  0.32635724  1
  C  C270  1  0.36426118  0.94961108  0.32317369  1
  H  H271  1  0.65367758  0.85254275  0.40079969  1
  C  C272  1  0.14540029  0.88352957  0.36117946  1
  H  H273  1  0.09788116  0.78519319  0.31692858  1
  O  O274  1  0.30005251  0.83507705  0.28289392  1
  H  H275  1  0.32584691  0.76212659  0.46431593  1
  C  C276  1  0.48235285  0.77827992  0.44093508  1
  O  O277  1  0.35004882  0.78512677  0.39659959  1
  O  O278  1  0.76070566  0.76736404  0.26460734  1
  H  H279  1  0.66245896  0.75438984  0.43158882  1
  O  O280  1  0.96010682  0.75830334  0.48873712  1
  O  O281  1  0.50025203  0.89176238  0.25340067  1
  C  C282  1  0.10333892  0.75243398  0.33317999  1
  C  C283  1  0.14823832  0.91616514  0.60032947  1
  C  C284  1  0.66352801  0.87569051  0.55387860  1
  O  O285  1  0.99327492  0.81392329  0.66437784  1
  H  H286  1  0.62439363  0.83487586  0.61163007  1
  C  C287  1  0.09726090  0.85271091  0.65736005  1
  H  H288  1  0.32315026  0.93127816  0.61684736  1
  C  C289  1  0.75336014  0.86010497  0.59590691  1
  C  C290  1  0.99447327  0.87897119  0.61570109  1
  C  C291  1  0.81248708  0.91282082  0.53726352  1
  H  H292  1  0.30666739  0.77184178  0.57094115  1
  O  O293  1  0.30130705  0.86316070  0.68130566  1
  C  C294  1  0.04072136  0.93336471  0.56079061  1
  C  C295  1  0.17736010  0.97317439  0.53869152  1
  Zn  Zn296  1  0.59166051  0.80330833  0.69043481  1
  O  O297  1  0.42856551  0.85226589  0.53208523  1
  O  O298  1  0.40061256  0.99080295  0.55539483  1
  H  H299  1  0.66406388  0.77530829  0.52498737  1
  O  O300  1  0.56542318  0.75739116  0.63338235  1
  H  H301  1  0.73849628  0.92696647  0.50547636  1
  H  H302  1  0.91483738  0.82214914  0.52247565  1
  C  C303  1  0.80882247  0.79582141  0.50116459  1
  O  O304  1  0.04737965  0.99219444  0.50720194  1
  H  H305  1  0.27230360  0.84263420  0.81291298  1
  C  C306  1  0.40766960  0.82499962  0.83850765  1
  H  H307  1  0.75507358  0.84597313  0.93700999  1
  O  O308  1  0.48300777  0.91242918  0.92320104  1
  O  O309  1  0.11871597  0.90424228  0.88066592  1
  C  C310  1  0.79938856  0.78299477  0.90283834  1
  Zn  Zn311  1  0.89524643  0.94450762  0.93124430  1
  C  C312  1  0.67690016  0.82582840  0.90793195  1
  C  C313  1  0.34878359  0.89091948  0.89323526  1
  C  C314  1  0.53354215  0.76381102  0.78495856  1
  C  C315  1  0.48265667  0.84630816  0.87866984  1
  C  C316  1  0.53607236  0.78428930  0.83073015  1
  C  C317  1  0.72591132  0.76421288  0.86161551  1
  O  O318  1  0.18432765  0.98992671  0.97619979  1
  O  O319  1  0.99886142  0.76722049  0.93254407  1
  O  O320  1  0.42985226  0.78518036  0.75160337  1
  H  H321  1  0.34711380  0.77350781  0.98284845  1
  O  O322  1  0.94500333  0.89026974  0.98491876  1
  H  H323  1  0.73905323  0.82176124  0.99225441  1
