# generated using pymatgen
data_Zn5H20C37O21
_symmetry_space_group_name_H-M   'P 1'
_cell_length_a   18.88297452
_cell_length_b   20.45062155
_cell_length_c   25.69866779
_cell_angle_alpha   90.00000000
_cell_angle_beta   90.00000000
_cell_angle_gamma   90.00000000
_symmetry_Int_Tables_number   1
_chemical_formula_structural   Zn5H20C37O21
_chemical_formula_sum   'Zn40 H160 C296 O168'
_cell_volume   9924.01768003
_cell_formula_units_Z   8
loop_
 _symmetry_equiv_pos_site_id
 _symmetry_equiv_pos_as_xyz
  1  'x, y, z'
loop_
 _atom_site_type_symbol
 _atom_site_label
 _atom_site_symmetry_multiplicity
 _atom_site_fract_x
 _atom_site_fract_y
 _atom_site_fract_z
 _atom_site_occupancy
  O  O0  1  0.20907314  0.16529783  0.15653941  1
  C  C1  1  0.45164713  0.46160813  0.12786375  1
  H  H2  1  0.43608123  0.08126818  0.05927502  1
  C  C3  1  0.15779237  0.16229052  0.12590336  1
  H  H4  1  0.12370001  0.24669187  0.20139842  1
  C  C5  1  0.09085670  0.19808951  0.13257742  1
  C  C6  1  0.20489329  0.46632318  0.23352167  1
  C  C7  1  0.22985410  0.42428807  0.07374315  1
  C  C8  1  0.47012336  0.41357071  0.04454326  1
  C  C9  1  0.49710337  0.29214498  0.22142181  1
  O  O10  1  0.27905435  0.02698302  0.11829181  1
  H  H11  1  0.44122431  0.17029067  0.19684206  1
  O  O12  1  0.21318912  0.36434075  0.06445644  1
  C  C13  1  0.07993139  0.24001034  0.17495908  1
  C  C14  1  0.40382068  0.04858789  0.20239571  1
  H  H15  1  0.05025269  0.16264176  0.05887412  1
  C  C16  1  0.43197844  0.45585798  0.07533532  1
  O  O17  1  0.35528489  0.17003522  0.07289903  1
  C  C18  1  0.19979542  0.39335004  0.16333420  1
  C  C19  1  0.01567027  0.27153628  0.18549937  1
  Zn  Zn20  1  0.19168940  0.01652924  0.07743136  1
  O  O21  1  0.16253486  0.12775342  0.08436013  1
  H  H22  1  0.46339686  0.33308123  0.20984976  1
  O  O23  1  0.41322497  0.06931788  0.15733040  1
  Zn  Zn24  1  0.30679786  0.11493711  0.13143915  1
  O  O25  1  0.24951141  0.46446418  0.04046698  1
  Zn  Zn26  1  0.15974996  0.31376182  0.01168835  1
  H  H27  1  0.18954080  0.34133336  0.15024390  1
  C  C28  1  0.03912505  0.19128165  0.09425647  1
  C  C29  1  0.18972922  0.40196800  0.21740506  1
  C  C30  1  0.21925152  0.44223025  0.12844236  1
  C  C31  1  0.41177192  0.05963165  0.02330302  1
  C  C32  1  0.33827988  0.16600115  0.02599948  1
  H  H33  1  0.02386872  0.49260144  0.01559459  1
  H  H34  1  0.38980387  0.48537421  0.06043945  1
  C  C35  1  0.43508668  0.15903380  0.23683529  1
  H  H36  1  0.07776658  0.44041721  0.24299107  1
  C  C37  1  0.41330868  0.09484599  0.24734646  1
  H  H38  1  0.49374700  0.25734553  0.18868423  1
  O  O39  1  0.16742835  0.35065919  0.24677415  1
  O  O40  1  0.29436737  0.19854827  0.00238171  1
  C  C41  1  0.35846640  0.09864234  0.00207532  1
  C  C42  1  0.29166673  0.47017005  0.38607287  1
  H  H43  1  0.33433188  0.39699420  0.43881974  1
  H  H44  1  0.15868548  0.32596028  0.32507283  1
  H  H45  1  0.44808357  0.21683118  0.35810497  1
  C  C46  1  0.43122404  0.18188721  0.32711961  1
  C  C47  1  0.03314364  0.37605205  0.35813486  1
  O  O48  1  0.44972095  0.13231142  0.42807714  1
  C  C49  1  0.40901096  0.07134982  0.29799498  1
  H  H50  1  0.19923085  0.48021042  0.27372901  1
  C  C51  1  0.13639568  0.36620293  0.30075987  1
  C  C52  1  0.17212099  0.48230405  0.44308451  1
  C  C53  1  0.44232236  0.20512457  0.27611150  1
  H  H54  1  0.09877441  0.15045651  0.45372164  1
  C  C55  1  0.05608410  0.36713265  0.30376792  1
  C  C56  1  0.36134159  0.46621304  0.34917644  1
  C  C57  1  0.41893614  0.10029122  0.39455782  1
  O  O58  1  0.37398385  0.41151660  0.33450660  1
  H  H59  1  0.00930658  0.26869375  0.30159832  1
  C  C60  1  0.41835917  0.11773317  0.33743480  1
  H  H61  1  0.16259232  0.41445391  0.31066965  1
  C  C62  1  0.28908077  0.43290609  0.42955150  1
  O  O63  1  0.47173775  0.37103415  0.44765604  1
  H  H64  1  0.03555908  0.42999809  0.36577436  1
  H  H65  1  0.07070183  0.35536599  0.38657516  1
  O  O66  1  0.46171191  0.26941744  0.26863337  1
  C  C67  1  0.22528114  0.44120343  0.45826467  1
  H  H68  1  0.27844133  0.00721351  0.46341345  1
  O  O69  1  0.16378451  0.08167050  0.48019674  1
  O  O70  1  0.39497640  0.04222419  0.40477301  1
  H  H71  1  0.39745991  0.01895582  0.30544926  1
  C  C72  1  0.03584092  0.30406832  0.27475936  1
  C  C73  1  0.03635515  0.42743784  0.27187878  1
  C  C74  1  0.48865992  0.42528866  0.46081441  1
  H  H75  1  0.08507117  0.27855127  0.26037323  1
  O  O76  1  0.00025647  0.48265836  0.29980043  1
  H  H77  1  0.12564427  0.48344511  0.46884931  1
  C  C78  1  0.10187175  0.13263234  0.49393284  1
  H  H79  1  0.09038018  0.20601257  0.61940490  1
  O  O80  1  0.13155247  0.35105567  0.70825157  1
  H  H81  1  0.06613826  0.38287254  0.57172725  1
  Zn  Zn82  1  0.12247634  0.46321152  0.71079536  1
  O  O83  1  0.15284554  0.29529714  0.63529987  1
  C  C84  1  0.20441999  0.05400230  0.51576680  1
  O  O85  1  0.23898723  0.46709478  0.69647740  1
  Zn  Zn86  1  0.23299563  0.34781502  0.60900401  1
  O  O87  1  0.48524534  0.13630912  0.72888862  1
  O  O88  1  0.03310474  0.24974951  0.54432046  1
  C  C89  1  0.19915589  0.06363434  0.57064116  1
  C  C90  1  0.21941855  0.40970164  0.51212955  1
  O  O91  1  0.29818098  0.38053998  0.67050591  1
  C  C92  1  0.24296917  0.03647849  0.60851028  1
  C  C93  1  0.00113606  0.16285788  0.65820243  1
  C  C94  1  0.12241779  0.30313705  0.68030875  1
  C  C95  1  0.04159019  0.09809697  0.57442253  1
  C  C96  1  0.01170200  0.36570908  0.57865200  1
  C  C97  1  0.01896563  0.26452086  0.73263533  1
  H  H98  1  0.16271593  0.09587870  0.58903714  1
  C  C99  1  0.28288938  0.42258118  0.70403778  1
  O  O100  1  0.47636846  0.35118685  0.64331535  1
  C  C101  1  0.05814580  0.20517878  0.65426286  1
  C  C102  1  0.06539651  0.25492502  0.69166787  1
  H  H103  1  0.37097864  0.16535148  0.72714870  1
  H  H104  1  0.05716628  0.04659889  0.57554302  1
  H  H105  1  0.08357133  0.12786116  0.59308209  1
  O  O106  1  0.16287573  0.41024352  0.53632583  1
  O  O107  1  0.18059656  0.08273063  0.67940942  1
  C  C108  1  0.23013065  0.05072271  0.66550354  1
  C  C109  1  0.03190123  0.12027577  0.51966071  1
  O  O110  1  0.26813641  0.37377756  0.53072122  1
  O  O111  1  0.27071083  0.02298257  0.70134356  1
  H  H112  1  0.49205245  0.43294934  0.70312566  1
  O  O113  1  0.05902167  0.46177669  0.64126762  1
  H  H114  1  0.37721601  0.33847125  0.73462705  1
  O  O115  1  0.47665681  0.44838115  0.50647149  1
  H  H116  1  0.13150246  0.16985715  0.51680079  1
  C  C117  1  0.26249211  0.01407735  0.50362726  1
  H  H118  1  0.33841306  0.24683569  0.74071623  1
  C  C119  1  0.04841122  0.17400956  0.85597310  1
  O  O120  1  0.03042965  0.13112676  0.82404362  1
  C  C121  1  0.30091683  0.47508073  0.79053882  1
  C  C122  1  0.45694658  0.25777561  0.79579422  1
  C  C123  1  0.34302348  0.47275351  0.83490182  1
  O  O124  1  0.28857393  0.36373699  0.90724827  1
  Zn  Zn125  1  0.29085150  0.44706068  0.96098027  1
  O  O126  1  0.12439400  0.08150938  0.96009311  1
  C  C127  1  0.06118359  0.49133021  0.80895401  1
  H  H128  1  0.43050874  0.09406191  0.78063249  1
  Zn  Zn129  1  0.07737973  0.04751966  0.79941083  1
  C  C130  1  0.11924222  0.20463342  0.85090471  1
  C  C131  1  0.13927936  0.25739559  0.88424324  1
  O  O132  1  0.00487477  0.18924396  0.89239126  1
  H  H133  1  0.42086093  0.43239432  0.88270584  1
  Zn  Zn134  1  0.24481771  0.05887133  0.77392722  1
  C  C135  1  0.33111640  0.08561039  0.95309653  1
  C  C136  1  0.40980464  0.19984142  0.79757032  1
  C  C137  1  0.38944976  0.42363973  0.84553751  1
  O  O138  1  0.18748860  0.36897745  0.94316782  1
  H  H139  1  0.30502091  0.28300867  0.83140313  1
  C  C140  1  0.24983841  0.26181288  0.83509522  1
  C  C141  1  0.16756209  0.17884158  0.81548444  1
  O  O142  1  0.27737812  0.16816131  0.77480605  1
  H  H143  1  0.15049846  0.14011364  0.78723504  1
  O  O144  1  0.44390519  0.20072368  0.89529152  1
  C  C145  1  0.23586745  0.20220732  0.80873923  1
  O  O146  1  0.45070933  0.32213801  0.82826567  1
  C  C147  1  0.22875319  0.34003802  0.90977362  1
  H  H148  1  0.10683357  0.27543600  0.91580569  1
  C  C149  1  0.12221868  0.02189029  0.97268189  1
  H  H150  1  0.28814996  0.11305051  0.93479059  1
  C  C151  1  0.35382842  0.19703860  0.75804903  1
  H  H152  1  0.46846502  0.26947228  0.75470312  1
  C  C153  1  0.20592560  0.28281661  0.87446278  1
  C  C154  1  0.31978935  0.42219104  0.75652218  1
  C  C155  1  0.36804431  0.37353565  0.76673221  1
  H  H156  1  0.37167958  0.14035840  0.85886993  1
  C  C157  1  0.34988373  0.02519830  0.93093335  1
  C  C158  1  0.39079350  0.19148502  0.85435877  1
  O  O159  1  0.28995988  0.05840991  0.85252294  1
  H  H160  1  0.35372415  0.23067683  0.86528367  1
  C  C161  1  0.40605867  0.36895448  0.81418122  1
  C  C162  1  0.31875342  0.01291798  0.87543158  1
  C  C163  1  0.03105432  0.43079750  0.89124749  1
  H  H164  1  0.45702376  0.06314175  0.88414499  1
  O  O165  1  0.16615686  0.01435741  0.80732902  1
  O  O166  1  0.04827615  0.44282681  0.78201297  1
  O  O167  1  0.40354626  0.45080718  0.96921098  1
  C  C168  1  0.01420315  0.43449898  0.94537917  1
  Zn  Zn169  1  0.02372528  0.21828844  0.97451225  1
  H  H170  1  0.02230388  0.38575563  0.86859933  1
  H  H171  1  0.02868709  0.30740651  0.75861088  1
  C  C172  1  0.46199352  0.14112562  0.78067261  1
  C  C173  1  0.02451915  0.49233866  0.97355878  1
  C  C174  1  0.45349160  0.40708525  0.98793079  1
  O  O175  1  0.47271543  0.36505905  0.96028546  1
  C  C176  1  0.49838605  0.15695463  0.90812512  1
  C  C177  1  0.04691092  0.49186065  0.86980578  1
  O  O178  1  0.12091669  0.23249990  0.98581077  1
  Zn  Zn179  1  0.18256466  0.16375242  0.99499498  1
  C  C180  1  0.25470812  0.58199323  0.22375254  1
  H  H181  1  0.14666634  0.78557111  0.14808576  1
  O  O182  1  0.20944515  0.89550963  0.12827516  1
  C  C183  1  0.15254450  0.91647403  0.14736569  1
  H  H184  1  0.48257473  0.97870182  0.10232218  1
  C  C185  1  0.41546581  0.50977783  0.16202151  1
  C  C186  1  0.10963146  0.80357875  0.17884676  1
  O  O187  1  0.29851173  0.76486996  0.16348872  1
  H  H188  1  0.48407541  0.78704132  0.15768021  1
  O  O189  1  0.12827573  0.97225311  0.13455190  1
  Zn  Zn190  1  0.31325600  0.94351309  0.15163295  1
  Zn  Zn191  1  0.34639903  0.65569301  0.15275635  1
  O  O192  1  0.25327469  0.62987294  0.19474831  1
  C  C193  1  0.33120021  0.80598549  0.18707047  1
  O  O194  1  0.38031440  0.99157764  0.20943715  1
  O  O195  1  0.45325762  0.67629001  0.17866854  1
  C  C196  1  0.10791149  0.87133567  0.18193614  1
  O  O197  1  0.36790009  0.84898344  0.16277606  1
  O  O198  1  0.39932023  0.58853358  0.02383936  1
  C  C199  1  0.06311065  0.90673569  0.21493214  1
  O  O200  1  0.36944053  0.67329950  0.07107016  1
  H  H201  1  0.47667683  0.75544853  0.05017209  1
  C  C202  1  0.41583807  0.63623700  0.05108030  1
  C  C203  1  0.07551362  0.75965704  0.21353080  1
  O  O204  1  0.37316282  0.54781938  0.14173173  1
  H  H205  1  0.25474394  0.54264281  0.12203438  1
  C  C206  1  0.48005981  0.68534290  0.22071647  1
  O  O207  1  0.43377964  0.50580783  0.20830246  1
  O  O208  1  0.07947199  0.69251141  0.21579949  1
  H  H209  1  0.06141501  0.95918401  0.21529815  1
  C  C210  1  0.32614379  0.79958852  0.24643307  1
  C  C211  1  0.22929826  0.51574230  0.20084138  1
  C  C212  1  0.49319327  0.64986972  0.05812416  1
  H  H213  1  0.22304985  0.75966952  0.23936457  1
  C  C214  1  0.23448533  0.50568809  0.14804435  1
  O  O215  1  0.47868454  0.95910606  0.02332516  1
  C  C216  1  0.02287762  0.86576810  0.24597337  1
  C  C217  1  0.03235138  0.79657760  0.24716874  1
  C  C218  1  0.42841129  0.99862742  0.00237277  1
  O  O219  1  0.45758352  0.89736168  0.35376972  1
  C  C220  1  0.26104520  0.75950619  0.32282036  1
  C  C221  1  0.17435528  0.52271663  0.39734800  1
  O  O222  1  0.28624929  0.58405909  0.26529844  1
  O  O223  1  0.12273447  0.56219937  0.38289046  1
  O  O224  1  0.20710614  0.73124423  0.34579351  1
  H  H225  1  0.25292020  0.54477243  0.33947585  1
  Zn  Zn226  1  0.40240769  0.57297091  0.26884601  1
  O  O227  1  0.43256066  0.67185703  0.42450145  1
  H  H228  1  0.18762152  0.61942747  0.35275856  1
  C  C229  1  0.09022350  0.66853664  0.32144664  1
  C  C230  1  0.14150654  0.72356829  0.31132860  1
  C  C231  1  0.04501125  0.68303218  0.36933897  1
  Zn  Zn232  1  0.46823580  0.96368598  0.42044479  1
  O  O233  1  0.45836217  0.81255489  0.40460951  1
  O  O234  1  0.37640443  0.60461314  0.47479928  1
  C  C235  1  0.38061495  0.82625668  0.27548080  1
  O  O236  1  0.40029551  0.51670963  0.33753219  1
  C  C237  1  0.43821213  0.84066629  0.36272277  1
  H  H238  1  0.11184631  0.76697407  0.30420526  1
  C  C239  1  0.37292209  0.81607790  0.32889298  1
  C  C240  1  0.05658019  0.65663815  0.27028444  1
  C  C241  1  0.32085738  0.78035721  0.35193931  1
  C  C242  1  0.13488914  0.61205461  0.33535732  1
  H  H243  1  0.08178297  0.69109641  0.40331009  1
  H  H244  1  0.14190939  0.58001071  0.30122934  1
  C  C245  1  0.41489224  0.65091967  0.46926613  1
  H  H246  1  0.31617246  0.77443523  0.39517610  1
  C  C247  1  0.26577519  0.77278189  0.26802889  1
  H  H248  1  0.17137752  0.71212173  0.27325473  1
  O  O249  1  0.47737875  0.64556908  0.25909659  1
  O  O250  1  0.37373181  0.92960153  0.47285789  1
  H  H251  1  0.00519662  0.66450704  0.46046997  1
  H  H252  1  0.07250197  0.60849816  0.25554082  1
  H  H253  1  0.01634243  0.63692847  0.38026955  1
  H  H254  1  0.42835456  0.84837857  0.25977151  1
  H  H255  1  0.48345692  0.77410925  0.48407587  1
  C  C256  1  0.23891282  0.51287638  0.37107668  1
  O  O257  1  0.41770245  0.92904583  0.55027467  1
  C  C258  1  0.47602115  0.65747937  0.60544856  1
  H  H259  1  0.41953187  0.67630071  0.69650986  1
  C  C260  1  0.45053743  0.67837463  0.51884025  1
  O  O261  1  0.46905910  0.61656143  0.64952734  1
  O  O262  1  0.04901315  0.64520327  0.69601558  1
  O  O263  1  0.12475138  0.56661505  0.67475265  1
  C  C264  1  0.16297202  0.64749505  0.73610446  1
  H  H265  1  0.40835651  0.59257385  0.55650183  1
  C  C266  1  0.44340523  0.63508440  0.55923849  1
  C  C267  1  0.36854457  0.94660825  0.51864679  1
  C  C268  1  0.47080652  0.64917750  0.69838336  1
  C  C269  1  0.22995762  0.61895295  0.73659093  1
  C  C270  1  0.10809177  0.61666263  0.69997426  1
  C  C271  1  0.48698120  0.73710732  0.51568945  1
  H  H272  1  0.23399479  0.57285238  0.71120334  1
  H  H273  1  0.48694831  0.52676981  0.70500106  1
  C  C274  1  0.30824911  0.98410150  0.54025530  1
  O  O275  1  0.00508559  0.63740926  0.54608319  1
  C  C276  1  0.29765229  0.99442075  0.59304431  1
  H  H277  1  0.33362889  0.97758016  0.62198459  1
  C  C278  1  0.48181277  0.53893285  0.74654793  1
  C  C279  1  0.48097410  0.61204345  0.74992831  1
  O  O280  1  0.27920040  0.52416211  0.90400127  1
  H  H281  1  0.05286658  0.70266065  0.99082598  1
  O  O282  1  0.37905325  0.56882514  0.88722940  1
  H  H283  1  0.42289988  0.60839189  0.82453120  1
  H  H284  1  0.02503357  0.84262455  0.79801536  1
  C  C285  1  0.33103880  0.53086081  0.87572780  1
  Zn  Zn286  1  0.19233258  0.93051031  0.83910944  1
  C  C287  1  0.05649193  0.98537957  0.96086801  1
  C  C288  1  0.41949342  0.63097222  0.78331199  1
  C  C289  1  0.05224485  0.55054800  0.89619057  1
  H  H290  1  0.31815441  0.72801148  0.81032429  1
  H  H291  1  0.07879814  0.68416863  0.92203086  1
  H  H292  1  0.40786775  0.93698448  0.93282888  1
  Zn  Zn293  1  0.44247746  0.54937165  0.95443779  1
  O  O294  1  0.25196183  0.83127478  0.82379550  1
  C  C295  1  0.04091066  0.55251120  0.95119629  1
  C  C296  1  0.20744558  0.72774999  0.78949452  1
  C  C297  1  0.05544276  0.91940017  0.97638978  1
  C  C298  1  0.29120200  0.64262703  0.76235736  1
  O  O299  1  0.14186303  0.82938982  0.81322077  1
  O  O300  1  0.31024016  0.95521357  0.86140818  1
  C  C301  1  0.04006225  0.67611464  0.95316989  1
  H  H302  1  0.07411952  0.59786243  0.87881610  1
  O  O303  1  0.02267664  0.96116120  0.76735233  1
  O  O304  1  0.05199058  0.61011921  0.97981947  1
  O  O305  1  0.10046746  0.53265170  0.78822456  1
  C  C306  1  0.39334841  0.98274370  0.95489187  1
  C  C307  1  0.27536435  0.70174310  0.78836875  1
  H  H308  1  0.41766361  0.68552153  0.78628131  1
  C  C309  1  0.19931563  0.79970400  0.80919341  1
  H  H310  1  0.26109437  0.51353247  0.78171280  1
  H  H311  1  0.09820989  0.90006703  0.99824406  1
  C  C312  1  0.14792055  0.70252444  0.76483013  1
  O  O313  1  0.35153614  0.60963266  0.75947900  1
  O  O314  1  0.17170006  0.99239261  0.99700620  1
  H  H315  1  0.43573042  0.51417810  0.76169926  1
  H  H316  1  0.09564613  0.73050347  0.76416182  1
  C  C317  1  0.70832758  0.02716508  0.10194036  1
  C  C318  1  0.77313192  0.06969067  0.19782707  1
  C  C319  1  0.52024728  0.37056711  0.06521336  1
  O  O320  1  0.99832407  0.31394084  0.22661637  1
  H  H321  1  0.54506402  0.02495426  0.06694175  1
  H  H322  1  0.54036020  0.33195573  0.03910910  1
  H  H323  1  0.62972965  0.22241786  0.22088228  1
  O  O324  1  0.75161443  0.22580455  0.13079800  1
  C  C325  1  0.97721766  0.22720501  0.10167037  1
  C  C326  1  0.96416831  0.26352177  0.14667232  1
  C  C327  1  0.75939362  0.11024720  0.15603974  1
  C  C328  1  0.77602973  0.18475285  0.16307820  1
  O  O329  1  0.58993711  0.33686599  0.13889767  1
  C  C330  1  0.80187313  0.40495431  0.22552872  1
  H  H331  1  0.66876825  0.33160214  0.19643633  1
  H  H332  1  0.72503650  0.13332238  0.08233610  1
  H  H333  1  0.79243268  0.08786542  0.23849099  1
  C  C334  1  0.72902453  0.09298888  0.10941179  1
  C  C335  1  0.92383003  0.23310529  0.05920467  1
  O  O336  1  0.86948628  0.26973340  0.06327322  1
  Zn  Zn337  1  0.90411211  0.41759281  0.06059310  1
  O  O338  1  0.81666440  0.20142876  0.19590533  1
  O  O339  1  0.81927453  0.35354379  0.20208684  1
  H  H340  1  0.61119593  0.40217342  0.19925664  1
  C  C341  1  0.61303662  0.34685342  0.19545360  1
  O  O342  1  0.81836653  0.40853263  0.10064059  1
  Zn  Zn343  1  0.79798781  0.31628638  0.11748815  1
  H  H344  1  0.91269288  0.28655948  0.15169512  1
  O  O345  1  0.76870114  0.45242222  0.20682467  1
  C  C346  1  0.54189415  0.37647526  0.11796977  1
  Zn  Zn347  1  0.77479510  0.48823061  0.12756178  1
  C  C348  1  0.50417058  0.42227346  0.14846264  1
  O  O349  1  0.93110082  0.19812687  0.01866244  1
  C  C350  1  0.57141038  0.31123953  0.23579088  1
  O  O351  1  0.95360143  0.49784760  0.10804028  1
  O  O352  1  0.98795996  0.37492213  0.02037809  1
  H  H353  1  0.51931698  0.43387591  0.18856056  1
  O  O354  1  0.67799232  0.00998949  0.05693393  1
  H  H355  1  0.99050243  0.47784681  0.19347788  1
  C  C356  1  0.75721994  0.00339691  0.18916256  1
  H  H357  1  0.99081224  0.41367124  0.24551825  1
  C  C358  1  0.69903283  0.37166931  0.40316222  1
  H  H359  1  0.50672951  0.36371218  0.29531294  1
  O  O360  1  0.93839780  0.11341110  0.30600514  1
  C  C361  1  0.72827479  0.10090577  0.35353436  1
  C  C362  1  0.83047847  0.35248645  0.39126006  1
  C  C363  1  0.89260917  0.38249381  0.30066607  1
  Zn  Zn364  1  0.84267389  0.44765804  0.35181599  1
  H  H365  1  0.82981770  0.32385374  0.42699259  1
  C  C366  1  0.91779378  0.15925372  0.33659999  1
  C  C367  1  0.57770542  0.45993745  0.33065293  1
  O  O368  1  0.69073982  0.26240575  0.27479492  1
  C  C369  1  0.83960017  0.16672517  0.34197177  1
  C  C370  1  0.75712660  0.38715865  0.31349954  1
  O  O371  1  0.90819770  0.09710192  0.47202582  1
  O  O372  1  0.95797719  0.36112587  0.38619959  1
  O  O373  1  0.64659782  0.15726449  0.46978366  1
  C  C374  1  0.54067678  0.43262395  0.37368871  1
  H  H375  1  0.77776341  0.13439725  0.45676554  1
  H  H376  1  0.70399471  0.38866144  0.29448779  1
  C  C377  1  0.72416798  0.20889221  0.29300938  1
  C  C378  1  0.80572369  0.21237344  0.30687929  1
  O  O379  1  0.62747329  0.04741921  0.38550324  1
  C  C380  1  0.82265240  0.39860333  0.28125342  1
  C  C381  1  0.90165209  0.36292119  0.36022748  1
  C  C382  1  0.69705954  0.14074101  0.31420048  1
  Zn  Zn383  1  0.74085243  0.20513509  0.37376933  1
  Zn  Zn384  1  0.89361802  0.02878092  0.27456612  1
  C  C385  1  0.80415286  0.11310995  0.37037894  1
  C  C386  1  0.76572624  0.37764154  0.37070969  1
  O  O387  1  0.67891485  0.41785806  0.43195729  1
  O  O388  1  0.66954812  0.31897935  0.40056770  1
  H  H389  1  0.83820839  0.07363138  0.38807257  1
  C  C390  1  0.56409595  0.35642493  0.28376568  1
  H  H391  1  0.92829567  0.35666319  0.27301488  1
  C  C392  1  0.69347209  0.04545682  0.37827374  1
  O  O393  1  0.95950625  0.19752337  0.35606558  1
  H  H394  1  0.59026158  0.33515872  0.31728401  1
  H  H395  1  0.83846445  0.24662829  0.28252741  1
  H  H396  1  0.57861601  0.22495823  0.28186202  1
  O  O397  1  0.58979997  0.42642501  0.28494338  1
  H  H398  1  0.64730649  0.12154335  0.29646103  1
  Zn  Zn399  1  0.56574150  0.08684447  0.44995451  1
  C  C400  1  0.53135647  0.46479854  0.42109232  1
  C  C401  1  0.61499669  0.25528552  0.25492709  1
  O  O402  1  0.73086813  0.00151291  0.39905863  1
  H  H403  1  0.97556699  0.20362847  0.48616475  1
  H  H404  1  0.51661903  0.38462390  0.36967939  1
  H  H405  1  0.99839120  0.07058623  0.44665997  1
  C  C406  1  0.98713683  0.07389241  0.49191564  1
  C  C407  1  0.78724296  0.12332489  0.49705939  1
  H  H408  1  0.91581403  0.05587477  0.57139074  1
  Zn  Zn409  1  0.50671697  0.40226849  0.57690200  1
  C  C410  1  0.55375106  0.10315331  0.72615062  1
  H  H411  1  0.61073646  0.26053442  0.73539140  1
  H  H412  1  0.99132591  0.02451964  0.50978679  1
  C  C413  1  0.59718361  0.31096737  0.74864466  1
  C  C414  1  0.96020255  0.22312755  0.73620372  1
  C  C415  1  0.57153868  0.06843498  0.68101998  1
  H  H416  1  0.70733188  0.12111172  0.62010538  1
  C  C417  1  0.86593498  0.08116871  0.56070629  1
  O  O418  1  0.56715930  0.47676820  0.62220717  1
  C  C419  1  0.99473865  0.46479734  0.63468206  1
  O  O420  1  0.75526393  0.39171758  0.55664414  1
  O  O421  1  0.54814339  0.26760416  0.65077111  1
  C  C422  1  0.74818877  0.11613660  0.58841100  1
  C  C423  1  0.81119967  0.08819478  0.59774588  1
  C  C424  1  0.85634534  0.09965730  0.50786800  1
  C  C425  1  0.68070323  0.02828997  0.71684573  1
  C  C426  1  0.54827100  0.34581074  0.71948869  1
  C  C427  1  0.73579779  0.13056115  0.53465927  1
  H  H428  1  0.90534977  0.14311619  0.70005366  1
  C  C429  1  0.88535072  0.40281933  0.60319029  1
  C  C430  1  0.82843378  0.06828136  0.65678985  1
  C  C431  1  0.85655537  0.34102956  0.58131314  1
  H  H432  1  0.95052544  0.18437776  0.55645682  1
  H  H433  1  0.85283580  0.45024664  0.60620376  1
  O  O434  1  0.62387764  0.17934445  0.55118752  1
  C  C435  1  0.78075870  0.33933433  0.56964187  1
  O  O436  1  0.80165509  0.09741189  0.69554772  1
  C  C437  1  0.95445759  0.17172087  0.70038423  1
  Zn  Zn438  1  0.94247427  0.31335510  0.62721065  1
  C  C439  1  0.90558900  0.29461688  0.55345834  1
  O  O440  1  0.58830334  0.35370449  0.54851732  1
  C  C441  1  0.96544369  0.41030666  0.60665309  1
  C  C442  1  0.63337423  0.03046823  0.67660985  1
  Zn  Zn443  1  0.62563879  0.27385665  0.58299292  1
  C  C444  1  0.51899332  0.31732829  0.66939327  1
  O  O445  1  0.74597041  0.28763450  0.57897247  1
  H  H446  1  0.87836511  0.26511050  0.52362865  1
  C  C447  1  0.53004395  0.40875690  0.73082958  1
  H  H448  1  0.53931102  0.06863355  0.64634506  1
  C  C449  1  0.98720698  0.29693060  0.55451741  1
  Zn  Zn450  1  0.66121694  0.41374249  0.51489722  1
  C  C451  1  0.66565709  0.15613455  0.51760631  1
  O  O452  1  0.98979191  0.11511746  0.62146662  1
  O  O453  1  0.87045918  0.02402586  0.66440564  1
  C  C454  1  0.99298896  0.18320014  0.52584741  1
  H  H455  1  0.72882532  0.00054278  0.71334414  1
  H  H456  1  0.55342476  0.23626427  0.93937494  1
  O  O457  1  0.70033187  0.26099336  0.81623732  1
  C  C458  1  0.50276035  0.08982673  0.90089642  1
  O  O459  1  0.69778138  0.34609435  0.86686649  1
  C  C460  1  0.56127438  0.05374887  0.91541646  1
  Zn  Zn461  1  0.85832267  0.07431462  0.76616082  1
  C  C462  1  0.60349028  0.40877825  0.80548113  1
  C  C463  1  0.60306187  0.10346389  0.76699318  1
  Zn  Zn464  1  0.75383814  0.30364992  0.93583687  1
  C  C465  1  0.67958689  0.31662269  0.82593403  1
  O  O466  1  0.82130299  0.23296952  0.91200429  1
  C  C467  1  0.66751148  0.06634662  0.76244178  1
  O  O468  1  0.86215444  0.18294876  0.78360322  1
  C  C469  1  0.67878395  0.18119440  0.97430213  1
  C  C470  1  0.90756485  0.22998579  0.77674197  1
  O  O471  1  0.76739666  0.03595711  0.81651576  1
  O  O472  1  0.67896589  0.24121988  0.98284379  1
  O  O473  1  0.91456209  0.27728900  0.80615607  1
  O  O474  1  0.70707044  0.12095930  0.83920810  1
  Zn  Zn475  1  0.91053824  0.27226192  0.89182934  1
  O  O476  1  0.74066333  0.40159973  0.97293107  1
  C  C477  1  0.99648755  0.37294946  0.97298763  1
  C  C478  1  0.62047908  0.08264529  0.94019202  1
  O  O479  1  0.72989161  0.14311275  0.98614040  1
  C  C480  1  0.78161074  0.44859405  0.97534593  1
  O  O481  1  0.84671768  0.44251372  0.98239219  1
  C  C482  1  0.55598984  0.18448408  0.93385803  1
  H  H483  1  0.59386712  0.12882019  0.80461209  1
  H  H484  1  0.62878022  0.43568430  0.83740732  1
  H  H485  1  0.66804608  0.05654121  0.95346023  1
  O  O486  1  0.86949007  0.07488607  0.92062204  1
  C  C487  1  0.71846244  0.07645694  0.80713743  1
  H  H488  1  0.64855754  0.48707377  0.95327160  1
  Zn  Zn489  1  0.77548922  0.19601154  0.85295136  1
  C  C490  1  0.62234114  0.34550222  0.79140072  1
  Zn  Zn491  1  0.84155646  0.16418579  0.96761170  1
  C  C492  1  0.61658039  0.14884552  0.94972590  1
  H  H493  1  0.50893850  0.24673620  0.81698755  1
  O  O494  1  0.93237327  0.01237475  0.80175569  1
  C  C495  1  0.55478187  0.44466018  0.77476131  1
  C  C496  1  0.86703203  0.01525758  0.92731349  1
  H  H497  1  0.99991424  0.06959435  0.93000640  1
  O  O498  1  0.99642517  0.31838577  0.94785423  1
  C  C499  1  0.99670358  0.01537013  0.93858711  1
  H  H500  1  0.50316343  0.14040363  0.81144770  1
  C  C501  1  0.59238649  0.92141057  0.13543583  1
  H  H502  1  0.68481200  0.68768801  0.08474944  1
  H  H503  1  0.50925058  0.84294910  0.08805687  1
  C  C504  1  0.88434564  0.61362312  0.20249011  1
  O  O505  1  0.53120419  0.91568764  0.16580992  1
  H  H506  1  0.84860580  0.64296894  0.17549852  1
  C  C507  1  0.64236427  0.94185002  0.04760722  1
  C  C508  1  0.91703555  0.54367960  0.12480155  1
  O  O509  1  0.72229512  0.57616519  0.10445631  1
  C  C510  1  0.96399965  0.52037092  0.21384352  1
  C  C511  1  0.54011934  0.59681037  0.06212005  1
  C  C512  1  0.55569886  0.85572056  0.06013691  1
  H  H513  1  0.62906213  0.87730189  0.14409283  1
  C  C514  1  0.92329304  0.56162033  0.18242583  1
  C  C515  1  0.53165878  0.86329098  0.20682999  1
  C  C516  1  0.62966414  0.68307928  0.07280758  1
  C  C517  1  0.60899884  0.61856259  0.07402792  1
  H  H518  1  0.71748513  0.93130060  0.13250542  1
  C  C519  1  0.65896390  0.56134960  0.08917904  1
  O  O520  1  0.60596745  0.79951876  0.06768069  1
  H  H521  1  0.61364323  0.96780089  0.15346991  1
  C  C522  1  0.78099998  0.95390603  0.23003880  1
  C  C523  1  0.58529750  0.73866816  0.06212780  1
  O  O524  1  0.86607133  0.56726531  0.09953032  1
  O  O525  1  0.77534119  0.89500776  0.21831130  1
  C  C526  1  0.72641755  0.98422517  0.14184752  1
  C  C527  1  0.57810321  0.92291516  0.07591557  1
  H  H528  1  0.52474306  0.54678725  0.06826990  1
  H  H529  1  0.63147232  0.95248808  0.00306686  1
  C  C530  1  0.51452201  0.71498830  0.05879536  1
  H  H531  1  0.68360206  0.90388828  0.05160660  1
  C  C532  1  0.50502633  0.80156154  0.19634449  1
  H  H533  1  0.54092578  0.85838580  0.01914984  1
  C  C534  1  0.52040138  0.97413566  0.06792377  1
  C  C535  1  0.51121073  0.75024617  0.23275325  1
  O  O536  1  0.63915534  0.50590816  0.09190349  1
  O  O537  1  0.82537544  0.72102917  0.24602981  1
  H  H538  1  0.92005401  0.67340935  0.00794694  1
  O  O539  1  0.60011707  0.66455398  0.42521852  1
  C  C540  1  0.92701350  0.58016410  0.28664272  1
  O  O541  1  0.76035132  0.81855137  0.33881857  1
  C  C542  1  0.96633655  0.89432657  0.27762071  1
  Zn  Zn543  1  0.52079198  0.73254973  0.40049134  1
  O  O544  1  0.65535301  0.64336630  0.35213029  1
  Zn  Zn545  1  0.71482957  0.73179594  0.34623368  1
  C  C546  1  0.88539888  0.62060327  0.25629831  1
  O  O547  1  0.81484138  0.67557384  0.32180987  1
  Zn  Zn548  1  0.73630484  0.89351034  0.38043606  1
  C  C549  1  0.96452843  0.52458748  0.26793911  1
  O  O550  1  0.61581592  0.78492129  0.37005415  1
  C  C551  1  0.56570142  0.82221449  0.29168883  1
  C  C552  1  0.90777161  0.79570451  0.42555755  1
  H  H553  1  0.63095668  0.55447173  0.31005283  1
  C  C554  1  0.59237144  0.55496484  0.38742286  1
  H  H555  1  0.54584602  0.71857654  0.30919109  1
  H  H556  1  0.89699851  0.82612987  0.39074334  1
  O  O557  1  0.81049085  0.89365432  0.43798801  1
  C  C558  1  0.60331667  0.52240213  0.34010542  1
  C  C559  1  0.55720192  0.52654828  0.42949917  1
  H  H560  1  0.92033007  0.58927065  0.33048914  1
  O  O561  1  0.92306277  0.85956677  0.30064960  1
  C  C562  1  0.83902223  0.67591514  0.27740752  1
  C  C563  1  0.61722041  0.62507864  0.38931360  1
  C  C564  1  0.82368616  0.86576015  0.48037788  1
  C  C565  1  0.87673548  0.80986973  0.47352892  1
  C  C566  1  0.60087312  0.83693865  0.34308110  1
  Zn  Zn567  1  0.81888110  0.82595884  0.27673308  1
  O  O568  1  0.62369997  0.89161685  0.35598564  1
  H  H569  1  0.54704974  0.55196635  0.46766616  1
  C  C570  1  0.96910173  0.70756237  0.45874139  1
  C  C571  1  0.95567680  0.74498539  0.41503983  1
  C  C572  1  0.54099641  0.75971131  0.28218338  1
  O  O573  1  0.97022499  0.95522287  0.28375358  1
  O  O574  1  0.80052365  0.97331865  0.27481105  1
  O  O575  1  0.53484796  0.99722577  0.46863952  1
  H  H576  1  0.58049325  0.92440104  0.26641958  1
  C  C577  1  0.56147946  0.87393422  0.25588736  1
  H  H578  1  0.99871443  0.65539828  0.27028802  1
  H  H579  1  0.99672437  0.77041249  0.27424071  1
  O  O580  1  0.99326691  0.73375597  0.36932426  1
  C  C581  1  0.93519879  0.72239096  0.50612841  1
  O  O582  1  0.69095296  0.95370657  0.62065560  1
  O  O583  1  0.74493685  0.70476560  0.52976088  1
  C  C584  1  0.67995212  0.68938851  0.66233700  1
  O  O585  1  0.61038124  0.82264539  0.60643859  1
  H  H586  1  0.70978987  0.72877480  0.68000297  1
  Zn  Zn587  1  0.71042857  0.86809646  0.58106754  1
  C  C588  1  0.73721974  0.72072487  0.57365762  1
  C  C589  1  0.63172218  0.65490575  0.69425543  1
  C  C590  1  0.96277285  0.68372685  0.55161838  1
  H  H591  1  0.67710800  0.61190474  0.54298219  1
  O  O592  1  0.75715065  0.77641629  0.59243030  1
  Zn  Zn593  1  0.52828542  0.95214150  0.53586357  1
  C  C594  1  0.52249338  0.75607876  0.56224104  1
  C  C595  1  0.69109886  0.67731365  0.61008597  1
  C  C596  1  0.66517964  0.62132761  0.58609080  1
  C  C597  1  0.62489111  0.57934103  0.61716122  1
  C  C598  1  0.61105735  0.59654965  0.66777677  1
  H  H599  1  0.86319893  0.78039028  0.55679648  1
  H  H600  1  0.57506247  0.56438332  0.68668443  1
  O  O601  1  0.94157235  0.69332053  0.59867098  1
  C  C602  1  0.57101130  0.81375860  0.56725729  1
  O  O603  1  0.57954464  0.85692438  0.53063952  1
  O  O604  1  0.80256891  0.88627160  0.52209190  1
  C  C605  1  0.59821523  0.51525655  0.59386507  1
  H  H606  1  0.54697276  0.72895344  0.63985317  1
  C  C607  1  0.88881758  0.77448388  0.51764417  1
  O  O608  1  0.62100469  0.50234268  0.54813903  1
  C  C609  1  0.51591694  0.71474644  0.60507814  1
  C  C610  1  0.63998140  0.99253957  0.62805591  1
  Zn  Zn611  1  0.98100971  0.61175012  0.64238480  1
  H  H612  1  0.51088515  0.68905080  0.69202935  1
  O  O613  1  0.58825521  0.99997819  0.59745674  1
  O  O614  1  0.95511627  0.51195137  0.64742656  1
  O  O615  1  0.60905622  0.67383291  0.74025510  1
  H  H616  1  0.81792669  0.93728956  0.80273822  1
  H  H617  1  0.86132119  0.55410977  0.97371388  1
  C  C618  1  0.68547881  0.52767677  0.95078510  1
  H  H619  1  0.59016312  0.58919346  0.78225895  1
  C  C620  1  0.94161151  0.78136452  0.82846604  1
  C  C621  1  0.82705644  0.83684170  0.83482661  1
  H  H622  1  0.69757448  0.69119779  0.92992483  1
  C  C623  1  0.56525406  0.98135854  0.90112242  1
  C  C624  1  0.93443498  0.98104136  0.93765655  1
  O  O625  1  0.72357171  0.77803800  0.86720556  1
  C  C626  1  0.86974061  0.78481677  0.84535674  1
  C  C627  1  0.66393570  0.59017250  0.93895994  1
  Zn  Zn628  1  0.72430399  0.96935151  0.86949634  1
  O  O629  1  0.62534492  0.95462465  0.90850655  1
  C  C630  1  0.93846312  0.91219282  0.94570090  1
  C  C631  1  0.85161571  0.89403379  0.81139998  1
  O  O632  1  0.54642321  0.55652951  0.92285351  1
  C  C633  1  0.80609420  0.56698666  0.96302698  1
  C  C634  1  0.91453776  0.66449370  0.96559093  1
  C  C635  1  0.95932587  0.77211363  0.94069361  1
  O  O636  1  0.56695318  0.66050927  0.91826093  1
  C  C637  1  0.58579091  0.60580041  0.92562470  1
  C  C638  1  0.78762238  0.63303736  0.95259162  1
  C  C639  1  0.71521276  0.63936327  0.93970015  1
  C  C640  1  0.55393962  0.63108936  0.76891474  1
  C  C641  1  0.92518190  0.89595610  0.80339925  1
  C  C642  1  0.95572059  0.68116828  0.87799283  1
  C  C643  1  0.96983063  0.69688640  0.93429476  1
  O  O644  1  0.83188203  0.68221881  0.95161254  1
  O  O645  1  0.70369202  0.87391899  0.83725291  1
  H  H646  1  0.84605250  0.74345763  0.86680688  1
  H  H647  1  0.89268277  0.88541590  0.93576169  1
  C  C648  1  0.74741183  0.82946079  0.84924050  1
  O  O649  1  0.51445771  0.95270139  0.88376161  1
  H  H650  1  0.91174865  0.61207495  0.95461158  1
  C  C651  1  0.96656640  0.83963412  0.80769651  1
  O  O652  1  0.81020978  0.98101573  0.92374251  1
  H  H653  1  0.54838535  0.66835993  0.80259168  1
  H  H654  1  0.89942614  0.68232755  0.87077729  1
  C  C655  1  0.96157242  0.95772917  0.78741361  1
  H  H656  1  0.97675288  0.79885482  0.90413503  1
  C  C657  1  0.75734964  0.51641162  0.96389580  1
  H  H658  1  0.90180173  0.78111498  0.95245247  1
  C  C659  1  0.99689481  0.87937255  0.96536342  1
  O  O660  1  0.53528566  0.50411560  0.78740146  1
  O  O661  1  0.98486522  0.73004944  0.83748036  1
  O  O662  1  0.99974122  0.81105158  0.97462453  1
  H  H663  1  0.97143878  0.63007286  0.87095363  1
