# generated using pymatgen
data_Zn4H20C37O20
_symmetry_space_group_name_H-M   'P 1'
_cell_length_a   25.74708242
_cell_length_b   13.00189013
_cell_length_c   29.96572578
_cell_angle_alpha   90.00000000
_cell_angle_beta   90.00000000
_cell_angle_gamma   90.00000000
_symmetry_Int_Tables_number   1
_chemical_formula_structural   Zn4H20C37O20
_chemical_formula_sum   'Zn32 H160 C296 O160'
_cell_volume   10031.34843774
_cell_formula_units_Z   8
loop_
 _symmetry_equiv_pos_site_id
 _symmetry_equiv_pos_as_xyz
  1  'x, y, z'
loop_
 _atom_site_type_symbol
 _atom_site_label
 _atom_site_symmetry_multiplicity
 _atom_site_fract_x
 _atom_site_fract_y
 _atom_site_fract_z
 _atom_site_occupancy
  C  C0  1  0.09119793  0.44385979  0.05927137  1
  C  C1  1  0.07162963  0.33492799  0.04902788  1
  C  C2  1  0.02216746  0.31264441  0.06470205  1
  H  H3  1  0.14086091  0.29062819  0.01399363  1
  H  H4  1  0.04505302  0.40197566  0.22337908  1
  C  C5  1  0.08318736  0.16979956  0.01039126  1
  C  C6  1  0.02951753  0.15357837  0.02285964  1
  C  C7  1  0.10181411  0.26594485  0.02560073  1
  O  O8  1  0.13203539  0.47579836  0.04468443  1
  C  C9  1  0.00042218  0.22043624  0.05000891  1
  H  H10  1  0.19226196  0.10043840  0.00531983  1
  C  C11  1  0.36764988  0.39506549  0.18676427  1
  H  H12  1  0.43746608  0.30182673  0.19495193  1
  C  C13  1  0.40358275  0.33728185  0.21154099  1
  C  C14  1  0.32196476  0.43786898  0.20639604  1
  C  C15  1  0.36842081  0.43510850  0.13961053  1
  O  O16  1  0.39920778  0.39664217  0.11161172  1
  H  H17  1  0.29708309  0.48781755  0.18567675  1
  C  C18  1  0.06173569  0.35310671  0.24961085  1
  H  H19  1  0.01034882  0.07960928  0.01456430  1
  C  C20  1  0.12115366  0.31994907  0.30631736  1
  C  C21  1  0.12032824  0.15164002  0.34686680  1
  O  O22  1  0.15684201  0.17892833  0.37149951  1
  C  C23  1  0.09653620  0.22620470  0.31356587  1
  H  H24  1  0.15180227  0.34060480  0.32818140  1
  C  C25  1  0.05148683  0.19387017  0.29290762  1
  Zn  Zn26  1  0.22212256  0.14445865  0.41339644  1
  O  O27  1  0.19003616  0.05955541  0.46936084  1
  H  H28  1  0.03367998  0.11867472  0.30068464  1
  O  O29  1  0.07146315  0.11671146  0.45865404  1
  O  O30  1  0.09328710  0.07450453  0.35368191  1
  C  C31  1  0.10217931  0.39453198  0.27481313  1
  O  O32  1  0.26907783  0.46530941  0.27408483  1
  O  O33  1  0.27805510  0.03845937  0.38796204  1
  H  H34  1  0.19278755  0.45421235  0.30779971  1
  Zn  Zn35  1  0.48842996  0.16892527  0.35493134  1
  O  O36  1  0.24801576  0.29830808  0.39826330  1
  H  H37  1  0.12274509  0.26873160  0.48525741  1
  C  C38  1  0.29546413  0.30688226  0.40680100  1
  C  C39  1  0.49458270  0.35648414  0.49599800  1
  Zn  Zn40  1  0.04068373  0.00613271  0.40870613  1
  O  O41  1  0.12095886  0.48855415  0.26899781  1
  C  C42  1  0.32421644  0.40880843  0.39160544  1
  C  C43  1  0.42640421  0.24802537  0.28338979  1
  H  H44  1  0.40057362  0.36005086  0.41460162  1
  O  O45  1  0.31878646  0.24330694  0.42815260  1
  H  H46  1  0.33888289  0.33645732  0.30759405  1
  C  C47  1  0.37809284  0.41271516  0.39213398  1
  C  C48  1  0.34602484  0.35499958  0.27315453  1
  O  O49  1  0.48592762  0.45651275  0.39912787  1
  C  C50  1  0.03543823  0.26131344  0.25960277  1
  O  O51  1  0.40921777  0.23256238  0.32234652  1
  C  C52  1  0.45300343  0.43564327  0.49263111  1
  C  C53  1  0.29358211  0.48726634  0.37373920  1
  H  H54  1  0.25167195  0.47446241  0.36952800  1
  C  C55  1  0.07071662  0.09226012  0.49975064  1
  C  C56  1  0.36128475  0.47236864  0.49928624  1
  O  O57  1  0.41383683  0.06470592  0.48809618  1
  H  H58  1  0.44561547  0.10701612  0.49258573  1
  C  C59  1  0.38958367  0.31395634  0.25450305  1
  C  C60  1  0.31070863  0.42278049  0.25095201  1
  O  O61  1  0.46868568  0.22036152  0.26905215  1
  C  C62  1  0.13821391  0.28519228  0.59709198  1
  C  C63  1  0.11431912  0.19290676  0.60789516  1
  C  C64  1  0.14539919  0.31327466  0.55211302  1
  H  H65  1  0.15476540  0.33295688  0.62592683  1
  H  H66  1  0.06919840  0.05785998  0.59065067  1
  C  C67  1  0.11982336  0.25178812  0.52156116  1
  C  C68  1  0.09042832  0.12842758  0.57898497  1
  C  C69  1  0.09382778  0.16159767  0.53358657  1
  C  C70  1  0.11919010  0.14971178  0.65600358  1
  O  O71  1  0.17548587  0.39325942  0.54032935  1
  H  H72  1  0.22336898  0.23579164  0.71782359  1
  O  O73  1  0.14423508  0.19049275  0.68563678  1
  H  H74  1  0.18900286  0.17013584  0.56381531  1
  C  C75  1  0.23076569  0.14602985  0.56338052  1
  O  O76  1  0.10224465  0.05880337  0.65849790  1
  C  C77  1  0.29337662  0.49469240  0.55327582  1
  H  H78  1  0.22524324  0.38186707  0.59073894  1
  C  C79  1  0.20261556  0.45333301  0.57699127  1
  H  H80  1  0.30175183  0.44229367  0.58295599  1
  C  C81  1  0.24392921  0.07586003  0.52792969  1
  H  H82  1  0.17403236  0.47680258  0.60278994  1
  C  C83  1  0.35560572  0.23064309  0.72614323  1
  C  C84  1  0.19925741  0.02210139  0.50617631  1
  O  O85  1  0.26280350  0.26210341  0.62771692  1
  C  C86  1  0.41527832  0.09097738  0.71350829  1
  O  O87  1  0.25452421  0.43510910  0.72283778  1
  H  H88  1  0.27091554  0.13313676  0.71845068  1
  O  O89  1  0.48922080  0.26421653  0.50132557  1
  C  C90  1  0.30209427  0.39038840  0.73184880  1
  Zn  Zn91  1  0.30293883  0.19399852  0.53660278  1
  C  C92  1  0.38789185  0.09490092  0.53948024  1
  H  H93  1  0.38898218  0.27924753  0.71296692  1
  C  C94  1  0.33704338  0.06630162  0.55809496  1
  C  C95  1  0.01806641  0.34727069  0.72754615  1
  O  O96  1  0.30766105  0.44332549  0.51571964  1
  C  C97  1  0.31852898  0.11091616  0.59868238  1
  O  O98  1  0.41749919  0.13651857  0.56354493  1
  H  H99  1  0.33681264  0.43852530  0.72473425  1
  C  C100  1  0.30778257  0.28846200  0.66226106  1
  O  O101  1  0.36856857  0.13272483  0.70281950  1
  H  H102  1  0.33889914  0.24222141  0.64869104  1
  H  H103  1  0.39108586  0.32299723  0.51158955  1
  C  C104  1  0.26792343  0.18222158  0.60335186  1
  C  C105  1  0.30442169  0.28051818  0.71067105  1
  C  C106  1  0.26230619  0.21493795  0.72814313  1
  H  H107  1  0.34622915  0.10932106  0.62720401  1
  H  H108  1  0.31614308  0.37154515  0.65549740  1
  C  C109  1  0.45495122  0.12272124  0.74304751  1
  C  C110  1  0.29551176  0.02394408  0.52781574  1
  O  O111  1  0.06142678  0.39079349  0.74173408  1
  O  O112  1  0.05269685  0.00325945  0.50905960  1
  H  H113  1  0.16855971  0.11058581  0.74931924  1
  C  C114  1  0.40132950  0.40149190  0.50184720  1
  C  C115  1  0.42848022  0.00167820  0.69005285  1
  O  O116  1  0.00520667  0.35365364  0.68796871  1
  C  C117  1  0.20605295  0.21053208  0.79912835  1
  C  C118  1  0.11081776  0.17889978  0.84833528  1
  O  O119  1  0.09955518  0.29214101  0.93004966  1
  C  C120  1  0.11982917  0.13055338  0.80664024  1
  C  C121  1  0.16506013  0.14876154  0.78180810  1
  H  H122  1  0.07382012  0.16865966  0.86860179  1
  C  C123  1  0.15073287  0.23755033  0.86572380  1
  C  C124  1  0.19622702  0.25161513  0.84102990  1
  C  C125  1  0.14448446  0.29909599  0.91064806  1
  O  O126  1  0.17608866  0.36038354  0.92228260  1
  Zn  Zn127  1  0.02987809  0.36501818  0.92225922  1
  H  H128  1  0.22425348  0.30154103  0.85667596  1
  C  C129  1  0.16654994  0.10642719  0.97524506  1
  H  H130  1  0.16779136  0.19180765  0.96477284  1
  C  C131  1  0.23997353  0.09186575  0.92067242  1
  C  C132  1  0.07682747  0.06224321  0.79005262  1
  O  O133  1  0.04140718  0.03954417  0.81637395  1
  H  H134  1  0.02358072  0.29808262  0.82029260  1
  C  C135  1  0.19180925  0.03938813  0.94173719  1
  H  H136  1  0.22779899  0.11237133  0.88461048  1
  H  H137  1  0.15471978  0.06494889  0.88232977  1
  H  H138  1  0.35784118  0.22966661  0.76268226  1
  O  O139  1  0.10864044  0.09925313  0.98790660  1
  O  O140  1  0.25027076  0.23544662  0.77831652  1
  C  C141  1  0.33017137  0.05509942  0.89903791  1
  O  O142  1  0.36201978  0.35129839  0.83992311  1
  H  H143  1  0.24949596  0.16295726  0.94040196  1
  O  O144  1  0.43843594  0.31371524  0.82067969  1
  C  C145  1  0.38513485  0.17572200  0.85586733  1
  H  H146  1  0.44813904  0.19563149  0.75993021  1
  H  H147  1  0.30876730  0.21120056  0.88197133  1
  C  C148  1  0.34006409  0.15118712  0.88039229  1
  C  C149  1  0.42412242  0.10393419  0.85159819  1
  C  C150  1  0.39390557  0.28677758  0.83709630  1
  H  H151  1  0.29819013  0.38038392  0.76994868  1
  H  H152  1  0.46381111  0.12050081  0.83858939  1
  O  O153  1  0.07837036  0.01875048  0.75305550  1
  O  O154  1  0.28455570  0.02581168  0.91914897  1
  C  C155  1  0.15089299  0.00598302  0.90966106  1
  C  C156  1  0.41462988  0.00670660  0.87033012  1
  H  H157  1  0.11071992  0.00741809  0.92523619  1
  C  C158  1  0.17598204  0.62821828  0.11751765  1
  C  C159  1  0.20136302  0.67528856  0.07510001  1
  H  H160  1  0.14619437  0.79403530  0.07643714  1
  C  C161  1  0.18020156  0.76270586  0.05787870  1
  Zn  Zn162  1  0.06635480  0.66340935  0.09191532  1
  O  O163  1  0.02923565  0.73696244  0.04040246  1
  O  O164  1  0.13307141  0.67843834  0.12948196  1
  O  O165  1  0.34432648  0.51091038  0.12335959  1
  C  C166  1  0.01449168  0.74537423  0.22001571  1
  O  O167  1  0.02376887  0.65363369  0.15276856  1
  C  C168  1  0.06523887  0.72204975  0.23124933  1
  O  O169  1  0.19372604  0.55839698  0.13860744  1
  H  H170  1  0.08936996  0.67313366  0.20963816  1
  C  C171  1  0.49649039  0.60514778  0.02570919  1
  C  C172  1  0.19982057  0.80607210  0.01849095  1
  Zn  Zn173  1  0.39032306  0.50685712  0.05538111  1
  C  C174  1  0.24387932  0.62319019  0.05627732  1
  H  H175  1  0.15610803  0.63194393  0.22835389  1
  H  H176  1  0.00460314  0.59129113  0.00501412  1
  O  O177  1  0.45308804  0.55814616  0.01977406  1
  H  H178  1  0.26032441  0.55133732  0.07155130  1
  C  C179  1  0.26818574  0.66991987  0.02053376  1
  O  O180  1  0.32740264  0.53245754  0.01369501  1
  H  H181  1  0.22416045  0.51431380  0.22245717  1
  O  O182  1  0.05823880  0.50377576  0.07624255  1
  O  O183  1  0.18071735  0.89295201  0.00176787  1
  H  H184  1  0.20264497  0.72865375  0.23691026  1
  C  C185  1  0.24736379  0.75849547  0.00320832  1
  H  H186  1  0.27632646  0.60378288  0.24136052  1
  C  C187  1  0.20429460  0.59897491  0.28372897  1
  C  C188  1  0.17442040  0.82844875  0.43388834  1
  C  C189  1  0.19429570  0.75580520  0.46378191  1
  H  H190  1  0.07361606  0.85441381  0.32822047  1
  C  C191  1  0.20784646  0.89707011  0.41113497  1
  C  C192  1  0.11839193  0.83076278  0.42928259  1
  O  O193  1  0.09766374  0.88178908  0.39772910  1
  H  H194  1  0.21561380  0.60383075  0.35523093  1
  C  C195  1  0.22878570  0.64700778  0.32394485  1
  C  C196  1  0.05897521  0.82227754  0.29681346  1
  H  H197  1  0.21452610  0.72636196  0.32739091  1
  C  C198  1  0.24779205  0.73575519  0.47206490  1
  O  O199  1  0.09477242  0.79694733  0.46203790  1
  C  C200  1  0.24492843  0.54752699  0.25192541  1
  H  H201  1  0.19197637  0.96403521  0.38972959  1
  C  C202  1  0.36754033  0.57778507  0.36011594  1
  C  C203  1  0.46590961  0.53583205  0.48331276  1
  H  H204  1  0.16461699  0.70822251  0.48019832  1
  O  O205  1  0.14289991  0.74843763  0.28044467  1
  C  C206  1  0.09163175  0.76099715  0.26873305  1
  O  O207  1  0.47764804  0.96980528  0.40963432  1
  H  H208  1  0.38695880  0.64572741  0.34885943  1
  C  C209  1  0.25889612  0.88598179  0.42410096  1
  C  C210  1  0.17678199  0.67477949  0.25489120  1
  H  H211  1  0.32409963  0.80790632  0.45718067  1
  C  C212  1  0.28057483  0.80994128  0.45162430  1
  C  C213  1  0.43693083  0.71176476  0.47038687  1
  Zn  Zn214  1  0.41137092  0.93729708  0.44826512  1
  O  O215  1  0.34580805  0.94859250  0.40649111  1
  C  C216  1  0.37105163  0.57415788  0.48657918  1
  H  H217  1  0.33916990  0.63186607  0.48567270  1
  O  O218  1  0.48567002  0.72703933  0.46615304  1
  O  O219  1  0.47682549  0.60768891  0.36899021  1
  C  C220  1  0.42337842  0.60303227  0.47923156  1
  C  C221  1  0.31240303  0.57540269  0.35104945  1
  O  O222  1  0.28754911  0.65042866  0.33002822  1
  C  C223  1  0.29755892  0.96478332  0.40694218  1
  O  O224  1  0.40329597  0.77851825  0.46595052  1
  C  C225  1  0.01018406  0.84913822  0.28490843  1
  C  C226  1  0.45833265  0.52451602  0.38202431  1
  H  H227  1  0.14330075  0.54397544  0.33123056  1
  C  C228  1  0.16829003  0.52226499  0.30097562  1
  C  C229  1  0.40077526  0.50503273  0.37751535  1
  H  H230  1  0.22267042  0.54453284  0.49541070  1
  C  C231  1  0.23716610  0.54171164  0.56482571  1
  C  C232  1  0.22145915  0.59673784  0.52354966  1
  O  O233  1  0.08524910  0.79880190  0.58599254  1
  H  H234  1  0.21471357  0.60383067  0.62959423  1
  O  O235  1  0.10434751  0.84294044  0.65292578  1
  C  C236  1  0.07126897  0.82960876  0.62408432  1
  H  H237  1  0.18413866  0.63201992  0.52760235  1
  H  H238  1  0.02732244  0.93754559  0.69736058  1
  C  C239  1  0.01432547  0.84941429  0.63449000  1
  O  O240  1  0.21249601  0.91485724  0.68440005  1
  H  H241  1  0.30183411  0.96159590  0.50174438  1
  Zn  Zn242  1  0.10412974  0.88634942  0.52594939  1
  C  C243  1  0.00017213  0.90669906  0.67217964  1
  H  H244  1  0.16310825  0.53817461  0.72085056  1
  Zn  Zn245  1  0.13801749  0.94554507  0.70558386  1
  O  O246  1  0.29987691  0.58876605  0.63126043  1
  C  C247  1  0.24571549  0.60798948  0.60200312  1
  H  H248  1  0.24700414  0.75902081  0.64575679  1
  C  C249  1  0.37071846  0.72075307  0.71836632  1
  H  H250  1  0.25690417  0.68752912  0.59233797  1
  C  C251  1  0.28095369  0.74702383  0.66737105  1
  O  O252  1  0.26515010  0.66675379  0.50174016  1
  C  C253  1  0.29103623  0.81507572  0.70224687  1
  C  C254  1  0.33544900  0.79965326  0.72785314  1
  H  H255  1  0.31866488  0.56498243  0.55701344  1
  C  C256  1  0.48411871  0.85430291  0.67056314  1
  H  H257  1  0.40056898  0.96554340  0.66661940  1
  O  O258  1  0.45548294  0.64152313  0.73315989  1
  C  C259  1  0.25225581  0.90551558  0.70864917  1
  O  O260  1  0.09752265  0.66380692  0.73019205  1
  C  C261  1  0.19559863  0.57616839  0.73928293  1
  H  H262  1  0.39021191  0.59269171  0.67536096  1
  O  O263  1  0.45640608  0.82271794  0.64266022  1
  C  C264  1  0.31297612  0.66268055  0.66014395  1
  C  C265  1  0.47397261  0.94913313  0.69916713  1
  C  C266  1  0.35978321  0.65231758  0.68597198  1
  O  O267  1  0.17371148  0.96071478  0.53073444  1
  C  C268  1  0.13146413  0.71913263  0.74712307  1
  C  C269  1  0.24384843  0.53125725  0.74497888  1
  C  C270  1  0.42145562  0.70560323  0.74392599  1
  O  O271  1  0.26182822  0.97189189  0.73545070  1
  C  C272  1  0.05184820  0.89707862  0.90097037  1
  O  O273  1  0.15031865  0.90034478  0.88591207  1
  C  C274  1  0.10001818  0.73085047  0.87315166  1
  H  H275  1  0.12782689  0.69755762  0.84831375  1
  C  C276  1  0.10679998  0.84952168  0.88463956  1
  Zn  Zn277  1  0.07263616  0.76981134  0.93859643  1
  C  C278  1  0.05867317  0.66352836  0.88765967  1
  C  C279  1  0.18342617  0.67113475  0.75927092  1
  C  C280  1  0.05165186  0.56419056  0.86736700  1
  H  H281  1  0.21168513  0.79955695  0.80359954  1
  C  C282  1  0.21783418  0.72434075  0.78690471  1
  H  H283  1  0.21642246  0.87419078  0.94422487  1
  C  C284  1  0.21096868  0.94467280  0.96586490  1
  O  O285  1  0.07673512  0.53677186  0.83421524  1
  Zn  Zn286  1  0.42328797  0.70353691  0.84434718  1
  Zn  Zn287  1  0.05405147  0.54952234  0.76433765  1
  H  H288  1  0.34216864  0.84449777  0.75917326  1
  O  O289  1  0.49733261  0.94217417  0.84819380  1
  C  C290  1  0.36903730  0.98159577  0.89293878  1
  H  H291  1  0.27126090  0.78694352  0.97616389  1
  O  O292  1  0.46341957  0.56266395  0.85199948  1
  O  O293  1  0.01885474  0.50163214  0.88313979  1
  O  O294  1  0.42580079  0.75954404  0.77864095  1
  C  C295  1  0.28019792  0.58320213  0.77156320  1
  C  C296  1  0.45561276  0.92304830  0.86770192  1
  C  C297  1  0.30661443  0.72703428  0.82197617  1
  O  O298  1  0.30643226  0.81729541  0.83203140  1
  O  O299  1  0.34203467  0.67091759  0.83960152  1
  C  C300  1  0.26589304  0.67591935  0.79122758  1
  H  H301  1  0.36215174  0.89922926  0.90428176  1
  H  H302  1  0.24808436  0.95989531  0.98553504  1
  O  O303  1  0.44435721  0.83677745  0.88258585  1
  O  O304  1  0.33897104  0.65927432  0.96731395  1
  H  H305  1  0.46040217  0.58301305  0.93851002  1
  H  H306  1  0.31813291  0.55093761  0.77623784  1
  O  O307  1  0.12274268  0.81332044  0.75553254  1
  H  H308  1  0.04347592  0.97615817  0.89109177  1
  C  C309  1  0.00597343  0.83579374  0.90499188  1
  C  C310  1  0.00964330  0.71881484  0.90213423  1
  C  C311  1  0.31554913  0.61935601  0.99702051  1
  C  C312  1  0.69794450  0.37278454  0.18723579  1
  C  C313  1  0.66778418  0.30302862  0.22037255  1
  H  H314  1  0.63178327  0.45839381  0.16586840  1
  C  C315  1  0.67313246  0.44554309  0.16298030  1
  O  O316  1  0.69497188  0.24593024  0.24543183  1
  O  O317  1  0.62091180  0.31287213  0.22313221  1
  C  C318  1  0.94570444  0.18360350  0.05368071  1
  O  O319  1  0.69912534  0.40601027  0.02789785  1
  O  O320  1  0.86067848  0.47365024  0.12763290  1
  O  O321  1  0.95972699  0.16580283  0.24544423  1
  O  O322  1  0.59799421  0.02203647  0.23146262  1
  C  C323  1  0.75012433  0.35231453  0.18349964  1
  C  C324  1  0.81266030  0.04049234  0.24488164  1
  C  C325  1  0.83734231  0.40990465  0.15238699  1
  H  H326  1  0.88676503  0.10704470  0.22301838  1
  O  O327  1  0.93603849  0.07610126  0.15533326  1
  C  C328  1  0.77884602  0.42102511  0.15664631  1
  C  C329  1  0.85585981  0.05289388  0.21751755  1
  H  H330  1  0.77193332  0.29235120  0.20263277  1
  O  O331  1  0.92040110  0.23823621  0.08012288  1
  O  O332  1  0.97601542  0.29275449  0.19889578  1
  O  O333  1  0.85889461  0.33475931  0.17213611  1
  Zn  Zn334  1  0.92273344  0.23284416  0.15008437  1
  O  O335  1  0.92089748  0.11869920  0.02796836  1
  H  H336  1  0.99998627  0.36992379  0.08272677  1
  C  C337  1  0.98705306  0.24036770  0.23227941  1
  C  C338  1  0.67622294  0.49989900  0.02201529  1
  H  H339  1  0.63865372  0.49928211  0.04157214  1
  H  H340  1  0.76761319  0.27012520  0.00855256  1
  C  C341  1  0.75510528  0.49393350  0.12959735  1
  H  H342  1  0.77500121  0.49878245  0.03256939  1
  H  H343  1  0.84856574  0.46322173  0.00691280  1
  O  O344  1  0.64671615  0.31536627  0.33730576  1
  Zn  Zn345  1  0.71788094  0.24277101  0.31493027  1
  C  C346  1  0.61019680  0.27421065  0.35761894  1
  O  O347  1  0.59446424  0.30768377  0.39457096  1
  C  C348  1  0.58154672  0.18418436  0.33803926  1
  C  C349  1  0.55765727  0.10215487  0.36683175  1
  C  C350  1  0.59027481  0.15349755  0.28922992  1
  H  H351  1  0.60276593  0.22066288  0.26686672  1
  C  C352  1  0.57705490  0.05046256  0.26840280  1
  Zn  Zn353  1  0.56392452  0.43949940  0.42469490  1
  C  C354  1  0.86469746  0.11424864  0.45845178  1
  H  H355  1  0.74590767  0.22037802  0.45905328  1
  C  C356  1  0.80536130  0.09587027  0.28921313  1
  O  O357  1  0.74380019  0.38514805  0.40392624  1
  H  H358  1  0.89115082  0.06162991  0.47472861  1
  C  C359  1  0.88880867  0.16471054  0.42303303  1
  O  O360  1  0.96587682  0.06907209  0.42782363  1
  O  O361  1  0.76147373  0.09948185  0.30706192  1
  O  O362  1  0.84343862  0.13761238  0.30796402  1
  C  C363  1  0.80958896  0.25783296  0.41549054  1
  O  O364  1  0.95975510  0.16874244  0.36936031  1
  C  C365  1  0.81461741  0.13321549  0.47607200  1
  C  C366  1  0.94191494  0.13433649  0.40656545  1
  H  H367  1  0.87468312  0.28651724  0.37499299  1
  Zn  Zn368  1  0.92344289  0.12227149  0.30543361  1
  C  C369  1  0.85985880  0.24184452  0.40189867  1
  C  C370  1  0.78722198  0.20823806  0.45150443  1
  C  C371  1  0.77851393  0.33330297  0.38538039  1
  O  O372  1  0.78159258  0.33444405  0.34294976  1
  Zn  Zn373  1  0.61524771  0.03189865  0.32719333  1
  O  O374  1  0.54093130  0.40374094  0.49434507  1
  C  C375  1  0.53345946  0.01015388  0.34633463  1
  Zn  Zn376  1  0.70214986  0.47865924  0.35933210  1
  C  C377  1  0.64919962  0.10790132  0.56072859  1
  C  C378  1  0.63134479  0.19925731  0.68208694  1
  C  C379  1  0.58583662  0.38268869  0.67075829  1
  C  C380  1  0.72318142  0.23969033  0.59024207  1
  H  H381  1  0.64557671  0.11956870  0.68659856  1
  C  C382  1  0.63298893  0.37717887  0.69331723  1
  C  C383  1  0.58390271  0.20703865  0.65977346  1
  C  C384  1  0.73575176  0.13302874  0.59508236  1
  C  C385  1  0.55888096  0.30105116  0.65248903  1
  C  C386  1  0.65669992  0.28236672  0.70211305  1
  O  O387  1  0.71078255  0.44950439  0.58192113  1
  H  H388  1  0.64891649  0.44924908  0.70572628  1
  C  C389  1  0.67942471  0.28197738  0.57187493  1
  Zn  Zn390  1  0.56277532  0.47059726  0.56332990  1
  C  C391  1  0.67687946  0.40417316  0.56455004  1
  H  H392  1  0.92261348  0.32383522  0.70295009  1
  H  H393  1  0.60985015  0.25338627  0.54089637  1
  C  C394  1  0.64121116  0.21516416  0.55823589  1
  O  O395  1  0.94754469  0.00553846  0.74856299  1
  C  C396  1  0.55687157  0.11371502  0.64172064  1
  O  O397  1  0.57067239  0.07331055  0.51998620  1
  O  O398  1  0.79817100  0.07713688  0.51146690  1
  C  C399  1  0.72490583  0.35350500  0.74847860  1
  C  C400  1  0.69406362  0.06950351  0.58102980  1
  H  H401  1  0.52229642  0.30970725  0.63204963  1
  O  O402  1  0.69879893  0.26430190  0.72868360  1
  O  O403  1  0.64156870  0.44137494  0.53993880  1
  C  C404  1  0.56585179  0.49285072  0.66293121  1
  O  O405  1  0.78138200  0.10079070  0.61315049  1
  H  H406  1  0.75577718  0.29200525  0.60288829  1
  O  O407  1  0.51457081  0.12719064  0.62139252  1
  C  C408  1  0.60707045  0.03754478  0.54480367  1
  C  C409  1  0.92806037  0.30319490  0.73876242  1
  H  H410  1  0.74528511  0.39364103  0.71963195  1
  O  O411  1  0.57594751  0.02768803  0.64882418  1
  H  H412  1  0.86674528  0.03357448  0.54453018  1
  O  O413  1  0.83672221  0.25899705  0.74231363  1
  H  H414  1  0.84143888  0.00129720  0.62593510  1
  Zn  Zn415  1  0.50045565  0.13438212  0.54732594  1
  C  C416  1  0.64940815  0.22899661  0.92884607  1
  O  O417  1  0.56144312  0.25571193  0.90265464  1
  C  C418  1  0.60395642  0.20700789  0.89925038  1
  O  O419  1  0.60837077  0.13567567  0.87193256  1
  H  H420  1  0.70698148  0.25172321  0.82964943  1
  C  C421  1  0.72769005  0.32755861  0.82875850  1
  H  H422  1  0.69557590  0.10517214  0.89913513  1
  C  C423  1  0.69405828  0.16857512  0.92404421  1
  O  O424  1  0.67985963  0.39567504  0.83059559  1
  C  C425  1  0.64865779  0.30576293  0.96297520  1
  O  O426  1  0.58164203  0.05703675  0.78595371  1
  O  O427  1  0.53962278  0.20411012  0.79032139  1
  C  C428  1  0.73410837  0.18529743  0.95346901  1
  H  H429  1  0.61390561  0.34343125  0.96628060  1
  C  C430  1  0.94417343  0.22776960  0.87598382  1
  C  C431  1  0.54475797  0.11360800  0.77761037  1
  O  O432  1  0.90198658  0.34810578  0.99290175  1
  Zn  Zn433  1  0.51561274  0.28428953  0.84422908  1
  C  C434  1  0.73200247  0.25991002  0.98830374  1
  H  H435  1  0.66718509  0.48843210  0.98463604  1
  H  H436  1  0.75093371  0.32616486  0.85827425  1
  C  C437  1  0.76079154  0.33462085  0.78836636  1
  Zn  Zn438  1  0.89436834  0.19039204  0.96557955  1
  C  C439  1  0.89252560  0.25407196  0.80822366  1
  C  C440  1  0.78342098  0.12758560  0.94869289  1
  O  O441  1  0.90263059  0.21250176  0.89545486  1
  C  C442  1  0.68899343  0.32029941  0.99263711  1
  H  H443  1  0.80818100  0.20378733  0.80731202  1
  O  O444  1  0.98374878  0.38482445  0.98164442  1
  C  C445  1  0.98594638  0.28685766  0.80462152  1
  C  C446  1  0.93954924  0.40796674  0.99292120  1
  O  O447  1  0.52564206  0.45917509  0.83509060  1
  O  O448  1  0.78787109  0.06168177  0.91736893  1
  C  C449  1  0.79058508  0.24247491  0.77703635  1
  H  H450  1  0.86003200  0.22196590  0.82769197  1
  O  O451  1  0.81917076  0.14372765  0.97580536  1
  C  C452  1  0.94150782  0.25691870  0.82853916  1
  C  C453  1  0.88304623  0.26816331  0.76199087  1
  C  C454  1  0.80153313  0.42458771  0.79297996  1
  H  H455  1  0.80850649  0.43274086  0.82862991  1
  H  H456  1  0.83816002  0.40519385  0.77625260  1
  C  C457  1  0.97636662  0.30967333  0.76061545  1
  H  H458  1  0.76936749  0.18362775  0.75600891  1
  H  H459  1  0.61562310  0.49937758  0.88285428  1
  O  O460  1  0.98715668  0.22999654  0.89566220  1
  C  C461  1  0.50134241  0.07111030  0.75044887  1
  H  H462  1  0.69262199  0.40326721  0.75918375  1
  H  H463  1  0.58911542  0.88708647  0.01195488  1
  C  C464  1  0.63177963  0.91566108  0.13748963  1
  O  O465  1  0.61953435  0.86230921  0.09831023  1
  C  C466  1  0.65491283  0.87972180  0.05684270  1
  H  H467  1  0.57731566  0.72724394  0.16479462  1
  C  C468  1  0.61664829  0.74933702  0.17849320  1
  C  C469  1  0.62601744  0.86119131  0.18457021  1
  H  H470  1  0.64240613  0.70526151  0.15436912  1
  C  C471  1  0.70889902  0.88679742  0.05847413  1
  C  C472  1  0.63246572  0.88470319  0.01478597  1
  H  H473  1  0.70472690  0.68410375  0.18602507  1
  C  C474  1  0.70733351  0.60596860  0.02887752  1
  C  C475  1  0.70252311  0.65076099  0.07342887  1
  H  H476  1  0.67983996  0.72252961  0.07245799  1
  C  C477  1  0.67578808  0.88121300  0.20597629  1
  O  O478  1  0.61416025  0.68716705  0.22301161  1
  C  C479  1  0.70623419  0.65364824  0.22015810  1
  O  O480  1  0.67548169  0.57624516  0.10779685  1
  H  H481  1  0.67216444  0.93927440  0.13206649  1
  H  H482  1  0.59779063  0.62161859  0.02227532  1
  H  H483  1  0.54485121  0.90199591  0.20073166  1
  C  C484  1  0.58586130  0.90571230  0.21356766  1
  H  H485  1  0.74178321  0.65906652  0.09004193  1
  C  C486  1  0.99318017  0.70000520  0.17700045  1
  H  H487  1  0.67608291  0.83584803  0.23886403  1
  C  C488  1  0.96246154  0.59615786  0.01200706  1
  C  C489  1  0.79811565  0.91394379  0.02352222  1
  O  O490  1  0.73238888  0.86350283  0.18013633  1
  H  H491  1  0.72960716  0.87733468  0.08934545  1
  C  C492  1  0.65719605  0.64919481  0.24002701  1
  H  H493  1  0.78114831  0.54257844  0.11055198  1
  O  O494  1  0.80312033  0.64874399  0.03059021  1
  C  C495  1  0.86078931  0.99240842  0.17930293  1
  C  C496  1  0.73874404  0.90012376  0.01917194  1
  C  C497  1  0.75450860  0.61900923  0.23604789  1
  C  C498  1  0.77241521  0.92043249  0.19159895  1
  C  C499  1  0.76291965  0.57554356  0.01769106  1
  Zn  Zn500  1  0.88938637  0.60684565  0.15737555  1
  C  C501  1  0.89092621  0.70761280  0.03212089  1
  O  O502  1  0.84386361  0.58849445  0.22075685  1
  C  C503  1  0.98557650  0.81174182  0.24769896  1
  O  O504  1  0.91525623  0.93580893  0.11861424  1
  C  C505  1  0.82027060  0.92839264  0.16753173  1
  C  C506  1  0.90715564  0.99880760  0.14947299  1
  C  C507  1  0.98351053  0.77371239  0.03557099  1
  O  O508  1  0.81819516  0.93091818  0.06031654  1
  Zn  Zn509  1  0.90354063  0.96426719  0.04816109  1
  C  C510  1  0.80103556  0.63007272  0.20789441  1
  O  O511  1  0.97204148  0.86416119  0.03981377  1
  H  H512  1  0.94423764  0.83111796  0.24100165  1
  O  O513  1  0.94636152  0.71614213  0.16519390  1
  H  H514  1  0.82872359  0.88666605  0.13754136  1
  C  C515  1  0.85370907  0.62784410  0.02545731  1
  H  H516  1  0.87829017  0.78219773  0.04383623  1
  O  O517  1  0.80259946  0.66497804  0.16970966  1
  C  C518  1  0.94288577  0.69366057  0.02553477  1
  C  C519  1  0.77155180  0.97833022  0.23146840  1
  O  O520  1  0.50931687  0.63865558  0.06176494  1
  H  H521  1  0.68314947  0.96648169  0.21163466  1
  C  C522  1  0.70057990  0.50862852  0.13227498  1
  H  H523  1  0.60516201  0.98083717  0.13511982  1
  H  H524  1  0.66696527  0.73397810  0.00777908  1
  H  H525  1  0.58600584  0.86121829  0.24460147  1
  C  C526  1  0.92686431  0.51660648  0.00766202  1
  C  C527  1  0.87326658  0.53153072  0.01393570  1
  C  C528  1  0.64858811  0.66573482  0.45408898  1
  H  H529  1  0.51182757  0.93989995  0.28110020  1
  O  O530  1  0.58474173  0.59300112  0.40383376  1
  C  C531  1  0.65740128  0.59104107  0.28186428  1
  H  H532  1  0.71799718  0.72607169  0.43214220  1
  H  H533  1  0.57008572  0.61806065  0.48094989  1
  C  C534  1  0.69394198  0.72325933  0.46093250  1
  H  H535  1  0.62352715  0.57360028  0.30217749  1
  C  C536  1  0.63323737  0.62041749  0.40960532  1
  O  O537  1  0.66470116  0.62145543  0.37768182  1
  C  C538  1  0.75476884  0.55753265  0.27626280  1
  C  C539  1  0.70508632  0.55445720  0.29541508  1
  Zn  Zn540  1  0.52267017  0.71455431  0.40460178  1
  C  C541  1  0.97640265  0.91550042  0.31666910  1
  O  O542  1  0.93683396  0.96062129  0.30240781  1
  C  C543  1  0.61045949  0.65031956  0.48708249  1
  C  C544  1  0.54125117  0.98575386  0.29742594  1
  O  O545  1  0.99071384  0.92492205  0.35607658  1
  C  C546  1  0.50038288  0.93865767  0.37603838  1
  H  H547  1  0.50694172  0.55911862  0.48188644  1
  O  O548  1  0.50043499  0.84913733  0.36368503  1
  H  H549  1  0.79008075  0.52796698  0.29469953  1
  H  H550  1  0.73651648  0.97661914  0.25432848  1
  O  O551  1  0.59227930  0.73369746  0.59686400  1
  C  C552  1  0.67066603  0.75727326  0.53381174  1
  H  H553  1  0.67717401  0.77974116  0.56859426  1
  C  C554  1  0.58662492  0.68606789  0.56160575  1
  C  C555  1  0.62521291  0.70194024  0.52565166  1
  O  O556  1  0.54798712  0.63187912  0.55437866  1
  Zn  Zn557  1  0.58589219  0.87944018  0.62354863  1
  Zn  Zn558  1  0.53565816  0.68385882  0.72096810  1
  O  O559  1  0.53310136  0.81292416  0.67458971  1
  O  O560  1  0.67621895  0.89205156  0.65136124  1
  O  O561  1  0.57950254  0.56356529  0.68927358  1
  H  H562  1  0.73436434  0.95594094  0.53898271  1
  C  C563  1  0.70767746  0.82423009  0.65203931  1
  H  H564  1  0.54745106  0.93069879  0.73683305  1
  O  O565  1  0.60860016  0.94658348  0.55603489  1
  H  H566  1  0.73831179  0.84475088  0.57853532  1
  C  C567  1  0.51220292  0.97915909  0.72951913  1
  C  C568  1  0.97845745  0.81484460  0.60331079  1
  O  O569  1  0.73797775  0.76002935  0.65484499  1
  H  H570  1  0.77722016  0.94815489  0.63218474  1
  C  C571  1  0.75868140  0.88640570  0.54968522  1
  C  C572  1  0.83489547  0.82557611  0.57562691  1
  O  O573  1  0.87201928  0.97614459  0.71737131  1
  H  H574  1  0.82140124  0.79081706  0.60751737  1
  C  C575  1  0.90913886  0.88207900  0.64496181  1
  H  H576  1  0.86833385  0.88407804  0.65170996  1
  C  C577  1  0.94547648  0.92137155  0.67456441  1
  O  O578  1  0.89127007  0.80161057  0.57325169  1
  H  H579  1  0.82485629  0.77037471  0.54762789  1
  C  C580  1  0.91909680  0.97231262  0.71554647  1
  C  C581  1  0.92448900  0.83379606  0.60487496  1
  C  C582  1  0.80939465  0.92854461  0.56572340  1
  H  H583  1  0.84466229  0.94494787  0.50329331  1
  H  H584  1  0.99502111  0.76906913  0.57494024  1
  H  H585  1  0.69652016  0.98524613  0.58959008  1
  C  C586  1  0.80301423  0.99026795  0.60816942  1
  O  O587  1  0.53674008  0.50762372  0.63145414  1
  C  C588  1  0.83296398  0.99482495  0.53064461  1
  O  O589  1  0.75548143  0.81529382  0.50778523  1
  C  C590  1  0.70913098  0.76770697  0.50100223  1
  C  C591  1  0.60366344  0.73852082  0.80585015  1
  C  C592  1  0.68467775  0.72519075  0.84798591  1
  O  O593  1  0.60362061  0.83072643  0.80872117  1
  C  C594  1  0.64590709  0.67099286  0.82439923  1
  C  C595  1  0.61879995  0.60129783  0.94619522  1
  O  O596  1  0.66713596  0.63358984  0.94604341  1
  Zn  Zn597  1  0.56510531  0.70144184  0.92610395  1
  C  C598  1  0.64402377  0.56559163  0.82034160  1
  H  H599  1  0.68645581  0.81043319  0.85274893  1
  C  C600  1  0.59032218  0.54498954  0.90739613  1
  C  C601  1  0.63073384  0.91966518  0.93382333  1
  C  C602  1  0.72181703  0.65698859  0.86416169  1
  O  O603  1  0.58300063  0.90551310  0.93316191  1
  O  O604  1  0.64986560  0.95872462  0.89736762  1
  O  O605  1  0.57084352  0.68484913  0.78483888  1
  C  C606  1  0.53572603  0.56291819  0.89944626  1
  H  H607  1  0.73642376  0.93115189  0.94739461  1
  H  H608  1  0.61123100  0.53538095  0.80079968  1
  H  H609  1  0.76529103  0.56394215  0.98011087  1
  C  C610  1  0.66167690  0.90519518  0.97572820  1
  O  O611  1  0.97477576  0.59421786  0.77252786  1
  C  C612  1  0.72350731  0.54911396  0.85851232  1
  C  C613  1  0.71629115  0.91157482  0.97686629  1
  C  C614  1  0.68232806  0.50054811  0.83837895  1
  Zn  Zn615  1  0.58356456  0.97455620  0.85060935  1
  O  O616  1  0.95883959  0.95200746  0.86906914  1
  C  C617  1  0.79519388  0.70586150  0.79032115  1
  C  C618  1  0.52670891  0.62677235  0.98441450  1
  C  C619  1  0.86763677  0.60999057  0.77984819  1
  C  C620  1  0.58218845  0.62615394  0.98831743  1
  C  C621  1  0.81361238  0.60704719  0.78011371  1
  O  O622  1  0.91109849  0.86369835  0.91600358  1
  H  H623  1  0.75790486  0.50635329  0.86996073  1
  C  C624  1  0.82496073  0.79044853  0.80328381  1
  C  C625  1  0.90127491  0.69128911  0.79140358  1
  O  O626  1  0.75737843  0.91935676  0.80377319  1
  O  O627  1  0.76852740  0.79631202  0.90047308  1
  O  O628  1  0.79565248  0.63816992  0.90681114  1
  Zn  Zn629  1  0.83160001  0.90960236  0.91023341  1
  O  O630  1  0.82711615  0.90099973  0.98991348  1
  C  C631  1  0.76537201  0.70052805  0.89315918  1
  C  C632  1  0.87847438  0.78250357  0.80711638  1
  C  C633  1  0.95740955  0.68195343  0.78280132  1
  H  H634  1  0.97265270  0.67587894  0.89879081  1
  H  H635  1  0.75384233  0.72103535  0.78636466  1
  O  O636  1  0.82645453  0.95981957  0.84005739  1
  C  C637  1  0.80152322  0.89963496  0.81403816  1
  H  H638  1  0.90181160  0.85114843  0.81824028  1
  C  C639  1  0.95308337  0.88090820  0.89607538  1
  C  C640  1  0.69268825  0.67596199  0.99258783  1
  H  H641  1  0.72535912  0.72113801  0.97809587  1
  H  H642  1  0.88140399  0.53447165  0.77050545  1
  Zn  Zn643  1  0.98589450  0.92075939  0.79933231  1
  O  O644  1  0.98790107  0.75661731  0.79046773  1
  O  O645  1  0.78396040  0.51528213  0.77285455  1
  C  C646  1  0.50425020  0.60254503  0.93869100  1
  C  C647  1  0.50890977  0.52858538  0.85910426  1
