# generated using pymatgen
data_Zn9H40C74O41
_symmetry_space_group_name_H-M   'P 1'
_cell_length_a   16.61605835
_cell_length_b   20.71395976
_cell_length_c   26.97919829
_cell_angle_alpha   90.00000000
_cell_angle_beta   90.00000000
_cell_angle_gamma   90.00000000
_symmetry_Int_Tables_number   1
_chemical_formula_structural   Zn9H40C74O41
_chemical_formula_sum   'Zn36 H160 C296 O164'
_cell_volume   9285.81820437
_cell_formula_units_Z   4
loop_
 _symmetry_equiv_pos_site_id
 _symmetry_equiv_pos_as_xyz
  1  'x, y, z'
loop_
 _atom_site_type_symbol
 _atom_site_label
 _atom_site_symmetry_multiplicity
 _atom_site_fract_x
 _atom_site_fract_y
 _atom_site_fract_z
 _atom_site_occupancy
  C  C0  1  0.15826916  0.46018018  0.23458750  1
  O  O1  1  0.20868061  0.13026713  0.04389273  1
  O  O2  1  0.35660164  0.31457289  0.17645258  1
  H  H3  1  0.35457740  0.11331365  0.17139463  1
  C  C4  1  0.08594881  0.21198935  0.09067922  1
  O  O5  1  0.09251468  0.38230911  0.03508047  1
  C  C6  1  0.43049367  0.42461962  0.01098495  1
  O  O7  1  0.46410577  0.19213420  0.13426159  1
  C  C8  1  0.02899074  0.46376054  0.08677791  1
  C  C9  1  0.16816628  0.21043588  0.10419888  1
  O  O10  1  0.17391033  0.33382594  0.20240368  1
  C  C11  1  0.14475982  0.29612428  0.16796188  1
  C  C12  1  0.39981528  0.08989360  0.19433049  1
  H  H13  1  0.27439482  0.43906523  0.19798001  1
  C  C14  1  0.22698320  0.16748842  0.07617411  1
  O  O15  1  0.16643186  0.46056845  0.06396468  1
  C  C16  1  0.40800111  0.35046919  0.19787296  1
  Zn  Zn17  1  0.36956849  0.25600642  0.10885300  1
  H  H18  1  0.07596388  0.44912480  0.16412799  1
  O  O19  1  0.30106902  0.17564869  0.08687234  1
  H  H20  1  0.25591146  0.24482741  0.15523912  1
  C  C21  1  0.19286410  0.24985863  0.14188993  1
  C  C22  1  0.36619751  0.03532107  0.21926388  1
  C  C23  1  0.03975907  0.25640331  0.11607753  1
  C  C24  1  0.07752559  0.45052642  0.20487402  1
  C  C25  1  0.46987696  0.12166320  0.20350997  1
  C  C26  1  0.06348807  0.29817644  0.15363581  1
  H  H27  1  0.06254011  0.18135384  0.06310842  1
  C  C28  1  0.10015325  0.43216597  0.06081901  1
  H  H29  1  0.02422318  0.33603605  0.16949784  1
  H  H30  1  0.43323767  0.43261146  0.05026683  1
  C  C31  1  0.12626315  0.39433561  0.22660343  1
  O  O32  1  0.46428120  0.37564320  0.17521781  1
  O  O33  1  0.33091018  0.33894022  0.06672316  1
  C  C34  1  0.33199794  0.33688233  0.02026977  1
  H  H35  1  0.13581091  0.04012614  0.22934055  1
  O  O36  1  0.29176651  0.01356301  0.20816914  1
  C  C37  1  0.22454319  0.47757684  0.20103375  1
  H  H38  1  0.01529785  0.46085757  0.22006897  1
  C  C39  1  0.49982973  0.18115078  0.17468285  1
  H  H40  1  0.20427240  0.48754419  0.16177726  1
  Zn  Zn41  1  0.23568395  0.49304347  0.00817298  1
  H  H42  1  0.48365768  0.44746952  0.24677920  1
  C  C43  1  0.38767565  0.37629280  0.24976554  1
  C  C44  1  0.12561039  0.26989655  0.35514200  1
  H  H45  1  0.09421240  0.09052782  0.42088201  1
  H  H46  1  0.23757905  0.23707685  0.32360987  1
  C  C47  1  0.09909668  0.20160898  0.36422353  1
  O  O48  1  0.24143254  0.33807234  0.34910357  1
  C  C49  1  0.06228970  0.31929240  0.35374943  1
  C  C50  1  0.35335466  0.41482116  0.34459566  1
  H  H51  1  0.21864130  0.47262298  0.37594251  1
  C  C52  1  0.20303306  0.28247527  0.32740404  1
  C  C53  1  0.05431518  0.01628732  0.49387754  1
  C  C54  1  0.43576856  0.42734031  0.26835799  1
  C  C55  1  0.02687687  0.09328883  0.42406954  1
  O  O56  1  0.12917882  0.02732396  0.49283975  1
  H  H57  1  0.34811861  0.43365820  0.38257973  1
  C  C58  1  0.30419735  0.36743878  0.32371205  1
  O  O59  1  0.31093051  0.14861515  0.30252304  1
  O  O60  1  0.29589679  0.48651320  0.45187311  1
  C  C61  1  0.23063984  0.49481186  0.47448894  1
  C  C62  1  0.15773769  0.47686832  0.39517769  1
  C  C63  1  0.41453120  0.44519899  0.31623347  1
  H  H64  1  0.20352048  0.22944161  0.41602419  1
  C  C65  1  0.13779554  0.23837252  0.40741187  1
  H  H66  1  0.08669205  0.36954143  0.34732733  1
  O  O67  1  0.09967653  0.00175064  0.29696381  1
  H  H68  1  0.13204472  0.16026215  0.34819216  1
  H  H69  1  0.09623814  0.36814164  0.25785593  1
  H  H70  1  0.19535998  0.29229415  0.28665290  1
  C  C71  1  0.49266079  0.03931518  0.26247323  1
  O  O72  1  0.01029283  0.18173738  0.36365970  1
  H  H73  1  0.20106679  0.43435009  0.30502074  1
  C  C74  1  0.32680810  0.34711846  0.27535809  1
  H  H75  1  0.09842965  0.25902652  0.43660262  1
  H  H76  1  0.29895548  0.30734150  0.25377022  1
  O  O77  1  0.08935632  0.47153743  0.31499050  1
  C  C78  1  0.16589411  0.47560912  0.28818304  1
  C  C79  1  0.41996856  0.00782252  0.25304939  1
  C  C80  1  0.15408735  0.48147199  0.44687088  1
  H  H81  1  0.02240260  0.32210431  0.38691897  1
  C  C82  1  0.08807361  0.47686170  0.36682848  1
  O  O83  1  0.00327733  0.30924158  0.30813171  1
  C  C84  1  0.24446373  0.14768550  0.28777378  1
  C  C85  1  0.01501764  0.00846812  0.31649243  1
  C  C86  1  0.00884240  0.48884122  0.44213879  1
  C  C87  1  0.01461816  0.47562115  0.39064271  1
  C  C88  1  0.46562606  0.49453940  0.34612885  1
  O  O89  1  0.17850690  0.14759773  0.27344637  1
  C  C90  1  0.07937387  0.49219992  0.47058664  1
  O  O91  1  0.22442385  0.28187710  0.49155017  1
  O  O92  1  0.03472672  0.16430274  0.55614514  1
  H  H93  1  0.30456478  0.26105558  0.57699722  1
  C  C94  1  0.32933831  0.06109699  0.63801365  1
  C  C95  1  0.29591453  0.10777232  0.59748966  1
  O  O96  1  0.15234103  0.19032967  0.67280072  1
  Zn  Zn97  1  0.08751443  0.27825625  0.56003599  1
  O  O98  1  0.43158149  0.34752687  0.71134383  1
  C  C99  1  0.10267057  0.37157807  0.58293687  1
  Zn  Zn100  1  0.11596193  0.10968078  0.62760565  1
  C  C101  1  0.14431311  0.36405029  0.53519480  1
  C  C102  1  0.18840079  0.28315286  0.62003228  1
  C  C103  1  0.40846099  0.07485387  0.65022779  1
  Zn  Zn104  1  0.24401297  0.37011174  0.63456059  1
  O  O105  1  0.34003197  0.14813419  0.58225106  1
  C  C106  1  0.21178892  0.31035832  0.52730908  1
  C  C107  1  0.12531216  0.44849692  0.73323007  1
  C  C108  1  0.46094076  0.03597004  0.68078005  1
  O  O109  1  0.46138395  0.28595388  0.64098521  1
  C  C110  1  0.25010762  0.29442369  0.57858581  1
  O  O111  1  0.14025533  0.46015249  0.68939517  1
  C  C112  1  0.12333595  0.33125965  0.62495931  1
  C  C113  1  0.03347024  0.41778607  0.58301551  1
  C  C114  1  0.20553520  0.23161109  0.66345045  1
  O  O115  1  0.05022687  0.47805233  0.58659497  1
  H  H116  1  0.43430490  0.11627340  0.63031520  1
  O  O117  1  0.27154951  0.23380297  0.67879681  1
  O  O118  1  0.22518310  0.09884299  0.57967817  1
  C  C119  1  0.44554940  0.31698319  0.67605901  1
  H  H120  1  0.13543626  0.39929005  0.50486558  1
  C  C121  1  0.28648266  0.01103154  0.65940086  1
  O  O122  1  0.06281868  0.42071577  0.74881952  1
  H  H123  1  0.22335052  0.00249290  0.65234118  1
  O  O124  1  0.11622399  0.00965359  0.62096824  1
  H  H125  1  0.49801498  0.48576917  0.71762168  1
  C  C126  1  0.22435270  0.42822530  0.90688696  1
  C  C127  1  0.30994394  0.47626251  0.84056191  1
  C  C128  1  0.25695207  0.20067001  0.89053190  1
  C  C129  1  0.26486811  0.13425931  0.90037688  1
  C  C130  1  0.42311150  0.32844664  0.82761373  1
  C  C131  1  0.13140495  0.18067789  0.93897189  1
  C  C132  1  0.18618060  0.22046748  0.91278427  1
  H  H133  1  0.39867501  0.17996690  0.87451445  1
  H  H134  1  0.11401327  0.41176120  0.82791135  1
  C  C135  1  0.21358296  0.09043988  0.92333307  1
  C  C136  1  0.39427384  0.36547104  0.93725492  1
  H  H137  1  0.35313101  0.33204839  0.91733576  1
  C  C138  1  0.18782555  0.46077831  0.77399690  1
  C  C139  1  0.45156363  0.26425634  0.83886762  1
  H  H140  1  0.46886954  0.05735019  0.82436504  1
  O  O141  1  0.05314447  0.27821400  0.96191363  1
  C  C142  1  0.05903146  0.21674120  0.95920184  1
  H  H143  1  0.16722206  0.27033209  0.90729201  1
  O  O144  1  0.26607300  0.45025443  0.94258513  1
  C  C145  1  0.38361841  0.21858116  0.84646656  1
  O  O146  1  0.30811776  0.24233463  0.86760674  1
  C  C147  1  0.17233541  0.43758260  0.81990196  1
  O  O148  1  0.00415634  0.18691432  0.98189386  1
  H  H149  1  0.35820600  0.33562371  0.83688785  1
  H  H150  1  0.36952238  0.19214014  0.80985787  1
  C  C151  1  0.23601363  0.44698003  0.85397280  1
  H  H152  1  0.02459505  0.01293364  0.80732358  1
  C  C153  1  0.14090163  0.11154192  0.94385413  1
  Zn  Zn154  1  0.31287646  0.04429039  0.89177097  1
  O  O155  1  0.16529924  0.39494972  0.91772889  1
  O  O156  1  0.46146100  0.38465717  0.85888513  1
  C  C157  1  0.38646106  0.37708266  0.98843243  1
  H  H158  1  0.47348919  0.28354854  0.91914165  1
  C  C159  1  0.44943130  0.39584824  0.90638535  1
  Zn  Zn160  1  0.15895356  0.32198074  0.98293898  1
  H  H161  1  0.09757533  0.08318966  0.96626807  1
  H  H162  1  0.43227296  0.34205499  0.78763372  1
  H  H163  1  0.48681069  0.23008204  0.76499792  1
  C  C164  1  0.26230314  0.48683568  0.76025622  1
  C  C165  1  0.48210490  0.46104626  0.98088975  1
  O  O166  1  0.28049270  0.30493529  0.99546339  1
  C  C167  1  0.17904173  0.02744479  0.80591684  1
  H  H168  1  0.48397978  0.49052625  0.82279337  1
  C  C169  1  0.49448295  0.44481772  0.93165344  1
  O  O170  1  0.15293833  0.07450226  0.78988457  1
  C  C171  1  0.32644902  0.49647613  0.79297940  1
  H  H172  1  0.35620815  0.48141005  0.87164819  1
  C  C173  1  0.45183586  0.78227722  0.04751995  1
  C  C174  1  0.45896497  0.63273515  0.16472224  1
  H  H175  1  0.09387684  0.61442886  0.20015474  1
  C  C176  1  0.14752937  0.90553291  0.01677891  1
  O  O177  1  0.09911236  0.94752330  0.14725479  1
  C  C178  1  0.06183867  0.63526216  0.16820142  1
  O  O179  1  0.28591171  0.53411129  0.21768869  1
  H  H180  1  0.19874802  0.87834354  0.16790195  1
  O  O181  1  0.19603133  0.72195913  0.13599773  1
  C  C182  1  0.04320268  0.97941855  0.07042452  1
  C  C183  1  0.30392077  0.57361265  0.12785510  1
  C  C184  1  0.43404724  0.78840649  0.13852313  1
  C  C185  1  0.39112212  0.61924407  0.19675548  1
  C  C186  1  0.17298169  0.92632342  0.17519599  1
  C  C187  1  0.43825192  0.80891779  0.22870755  1
  O  O188  1  0.26947593  0.58646482  0.02731221  1
  O  O189  1  0.37529315  0.64603142  0.01652881  1
  C  C190  1  0.03215123  0.72945260  0.12162213  1
  C  C191  1  0.39692505  0.77245765  0.09237146  1
  H  H192  1  0.09835212  0.85269885  0.23890691  1
  C  C193  1  0.31425939  0.75043287  0.09398779  1
  H  H194  1  0.05295883  0.98510214  0.22791540  1
  C  C195  1  0.17036374  0.93889972  0.22984310  1
  H  H196  1  0.09675531  0.62301510  0.13428052  1
  H  H197  1  0.15093852  0.78469533  0.18281598  1
  C  C198  1  0.06036844  0.70773530  0.17065405  1
  H  H199  1  0.24246876  0.56777190  0.11581518  1
  H  H200  1  0.38401081  0.65404198  0.22883476  1
  C  C201  1  0.27285316  0.74608066  0.13835901  1
  H  H202  1  0.17308775  0.70666010  0.21368670  1
  C  C203  1  0.03106753  0.76529989  0.03350731  1
  C  C204  1  0.44279542  0.62362327  0.11028896  1
  H  H205  1  0.09917652  0.54665667  0.10998177  1
  C  C206  1  0.14994790  0.90363983  0.06928048  1
  C  C207  1  0.39222103  0.78877220  0.18229876  1
  C  C208  1  0.14523381  0.72955184  0.18069435  1
  C  C209  1  0.31249579  0.76744342  0.18116923  1
  C  C210  1  0.04041772  0.97840727  0.01739586  1
  C  C211  1  0.36549102  0.59187239  0.09186405  1
  C  C212  1  0.31848889  0.57137004  0.18568606  1
  C  C213  1  0.09877439  0.94121662  0.09609439  1
  H  H214  1  0.48155080  0.64862931  0.08243742  1
  H  H215  1  0.19571278  0.87289896  0.08639439  1
  O  O216  1  0.06854344  0.72608752  0.06548204  1
  H  H217  1  0.28127151  0.76757686  0.21608824  1
  C  C218  1  0.03899521  0.52075940  0.11065738  1
  H  H219  1  0.28034283  0.73166073  0.06056108  1
  C  C220  1  0.25430722  0.96239591  0.23989919  1
  C  C221  1  0.33546134  0.60937961  0.04278244  1
  Zn  Zn222  1  0.41728324  0.53866922  0.14929734  1
  H  H223  1  0.03585946  0.78522054  0.12186633  1
  H  H224  1  0.20974093  0.96542380  0.15586360  1
  O  O225  1  0.25951272  0.83722613  0.01233647  1
  H  H226  1  0.49625047  0.80537680  0.14140605  1
  C  C227  1  0.00175867  0.74311827  0.20483490  1
  H  H228  1  0.00993154  0.73528742  0.24587274  1
  O  O229  1  0.00363502  0.81348742  0.20091288  1
  H  H230  1  0.30062465  0.92408987  0.23968963  1
  C  C231  1  0.11364191  0.99393422  0.24666044  1
  H  H232  1  0.38071227  0.72769549  0.38279111  1
  C  C233  1  0.10968004  0.70323877  0.33686014  1
  H  H234  1  0.32576732  0.74005147  0.29935373  1
  C  C235  1  0.24363522  0.67016983  0.32805782  1
  O  O236  1  0.45980039  0.50341638  0.39038761  1
  C  C237  1  0.14976520  0.87843131  0.25714589  1
  C  C238  1  0.16735125  0.65417926  0.34215422  1
  H  H239  1  0.07965031  0.79710323  0.31412646  1
  H  H240  1  0.14962589  0.60622641  0.35722978  1
  O  O241  1  0.22217882  0.83352756  0.26834039  1
  O  O242  1  0.44340584  0.57929680  0.48994082  1
  C  C243  1  0.12951914  0.76174069  0.31287023  1
  H  H244  1  0.02431687  0.92437159  0.36481621  1
  C  C245  1  0.37137546  0.74481670  0.46548243  1
  H  H246  1  0.40560596  0.96333188  0.27294502  1
  O  O247  1  0.36920264  0.63160292  0.30308764  1
  C  C248  1  0.26031883  0.72918615  0.30477750  1
  C  C249  1  0.20396287  0.77747089  0.29197268  1
  O  O250  1  0.30015865  0.57298619  0.35659245  1
  C  C251  1  0.30924912  0.62089439  0.32883783  1
  Zn  Zn252  1  0.43041382  0.83499061  0.45853436  1
  Zn  Zn253  1  0.36777979  0.56231632  0.42318502  1
  C  C254  1  0.41222109  0.74713182  0.41703995  1
  O  O255  1  0.28950381  0.65642284  0.43934358  1
  C  C256  1  0.02474028  0.70207697  0.35653548  1
  O  O257  1  0.40634496  0.79909999  0.26958225  1
  H  H258  1  0.19314965  0.52326131  0.29276895  1
  H  H259  1  0.13381527  0.89049843  0.29668404  1
  C  C260  1  0.30719257  0.69675687  0.47177928  1
  H  H261  1  0.25573520  0.97625933  0.28068182  1
  O  O262  1  0.00732718  0.65649611  0.38521891  1
  H  H263  1  0.42167962  0.99575409  0.47762298  1
  H  H264  1  0.35200112  0.63600878  0.63255072  1
  O  O265  1  0.29689416  0.95540974  0.52897455  1
  C  C266  1  0.26391890  0.66895276  0.68440883  1
  C  C267  1  0.34004421  0.67133158  0.66362643  1
  H  H268  1  0.40628363  0.73425530  0.54660610  1
  C  C269  1  0.32986434  0.97250541  0.69394321  1
  O  O270  1  0.21998918  0.58522185  0.62819802  1
  C  C271  1  0.49109649  0.92716219  0.58364767  1
  O  O272  1  0.12830770  0.62867177  0.67619296  1
  O  O273  1  0.47730838  0.71188002  0.66203352  1
  C  C274  1  0.44652676  0.57955419  0.53629124  1
  Zn  Zn275  1  0.26251240  0.60226422  0.55634333  1
  C  C276  1  0.24397855  0.71102300  0.72408288  1
  C  C277  1  0.35200292  0.93075622  0.55522868  1
  C  C278  1  0.41129256  0.98568693  0.70066272  1
  C  C279  1  0.40311000  0.70967391  0.68178535  1
  C  C280  1  0.20217315  0.62650178  0.66218970  1
  C  C281  1  0.43985005  0.94981687  0.54738515  1
  C  C282  1  0.03390029  0.90323361  0.70867403  1
  C  C283  1  0.38232142  0.74808613  0.72333106  1
  Zn  Zn284  1  0.07180464  0.54258599  0.64583560  1
  O  O285  1  0.33778716  0.88772077  0.58522066  1
  H  H286  1  0.45722567  0.89761103  0.61230780  1
  O  O287  1  0.27514034  0.69252230  0.51454933  1
  O  O288  1  0.06211062  0.84757406  0.70074050  1
  O  O289  1  0.39307135  0.60483111  0.56188480  1
  C  C290  1  0.46405166  0.98235114  0.50588947  1
  O  O291  1  0.06275796  0.93358767  0.74335715  1
  O  O292  1  0.22591680  0.52046122  0.51654989  1
  C  C293  1  0.30538523  0.74844332  0.74309483  1
  C  C294  1  0.42445888  0.75666952  0.50994141  1
  H  H295  1  0.07827046  0.50918049  0.50841056  1
  H  H296  1  0.48842718  0.56738903  0.70239451  1
  H  H297  1  0.47179074  0.57203838  0.63200073  1
  Zn  Zn298  1  0.19253498  0.99914988  0.55956904  1
  H  H299  1  0.07234016  0.99972146  0.60070576  1
  H  H300  1  0.47447103  0.80251114  0.59311393  1
  O  O301  1  0.02647434  0.97956996  0.52468682  1
  H  H302  1  0.18429560  0.70735408  0.74113465  1
  Zn  Zn303  1  0.38400773  0.90894539  0.74449697  1
  H  H304  1  0.27067381  0.50546400  0.72451734  1
  H  H305  1  0.42609204  0.78406450  0.73846799  1
  O  O306  1  0.20882434  0.87034519  0.94098040  1
  O  O307  1  0.39651408  0.52286028  0.77166005  1
  C  C308  1  0.09796002  0.94409175  0.98864132  1
  O  O309  1  0.34060430  0.83529378  0.79738077  1
  Zn  Zn310  1  0.21155934  0.79111365  0.88621847  1
  O  O311  1  0.08389721  0.78842386  0.87827711  1
  O  O312  1  0.22690937  0.79260007  0.81020739  1
  C  C313  1  0.05605402  0.77836012  0.98424255  1
  C  C314  1  0.29173918  0.79323882  0.78617687  1
  O  O315  1  0.20705838  0.98046153  0.82302623  1
  H  H316  1  0.11055113  0.75302328  0.96934323  1
  H  H317  1  0.31477684  0.70205909  0.92078641  1
  C  C318  1  0.03124393  0.82243848  0.89827296  1
  C  C319  1  0.47051442  0.97254890  0.90416289  1
  H  H320  1  0.43606533  0.56977182  0.82572947  1
  O  O321  1  0.40237379  0.98190944  0.88156733  1
  O  O322  1  0.29154811  0.74125524  0.93141388  1
  C  C323  1  0.20870661  0.86810307  0.98828865  1
  H  H324  1  0.10509610  0.94349554  0.94757133  1
  C  C325  1  0.38648372  0.65600391  0.86131690  1
  C  C326  1  0.46906866  0.53373283  0.80198391  1
  O  O327  1  0.47682390  0.94094629  0.94072964  1
  O  O328  1  0.33761229  0.61885620  0.87557991  1
  Zn  Zn329  1  0.36068738  0.75271609  0.99423613  1
  C  C330  1  0.01198413  0.81389253  0.95005063  1
  O  O331  1  0.43431702  0.69141058  0.84568008  1
  O  O332  1  0.80429678  0.37634733  0.08447253  1
  C  C333  1  0.60815866  0.24894428  0.03755189  1
  C  C334  1  0.85692699  0.02155376  0.17994926  1
  O  O335  1  0.55246307  0.21538374  0.19260740  1
  O  O336  1  0.64134408  0.30687685  0.11137117  1
  C  C337  1  0.78156059  0.43067235  0.20075261  1
  O  O338  1  0.58005039  0.36102976  0.05417308  1
  O  O339  1  0.73845919  0.07127201  0.06308336  1
  H  H340  1  0.68066235  0.19082391  0.09251469  1
  C  C341  1  0.60789265  0.30768688  0.06849143  1
  C  C342  1  0.62986827  0.46685236  0.19809412  1
  H  H343  1  0.81795595  0.16655016  0.12450223  1
  Zn  Zn344  1  0.63372494  0.44739135  0.07771916  1
  C  C345  1  0.64776536  0.19227377  0.05481125  1
  C  C346  1  0.68502466  0.07661391  0.02974780  1
  O  O347  1  0.61992889  0.42379682  0.16383443  1
  H  H348  1  0.76717883  0.39702631  0.17073896  1
  C  C349  1  0.94815638  0.26104997  0.10569530  1
  O  O350  1  0.76681252  0.26652486  0.20900211  1
  Zn  Zn351  1  0.58055729  0.32396000  0.18365796  1
  C  C352  1  0.52201198  0.09413315  0.23852408  1
  O  O353  1  0.90376499  0.29818713  0.12895919  1
  O  O354  1  0.76892242  0.18487541  0.13536124  1
  Zn  Zn355  1  0.79217666  0.15707994  0.20619211  1
  C  C356  1  0.71740945  0.46928605  0.21640817  1
  O  O357  1  0.91564725  0.22613760  0.07467632  1
  Zn  Zn358  1  0.77456763  0.29115435  0.12648188  1
  C  C359  1  0.95506530  0.43258560  0.08034039  1
  O  O360  1  0.90187867  0.03495927  0.14348607  1
  C  C361  1  0.64393676  0.14199473  0.02104902  1
  H  H362  1  0.95052186  0.38664693  0.06100219  1
  Zn  Zn363  1  0.84269273  0.01307706  0.07159088  1
  C  C364  1  0.89007675  0.46724886  0.09794930  1
  C  C365  1  0.73555063  0.30002054  0.24411415  1
  O  O366  1  0.79789393  0.05710225  0.19041538  1
  C  C367  1  0.80945455  0.43336576  0.09326992  1
  O  O368  1  0.91899095  0.04159747  0.00966361  1
  C  C369  1  0.86060397  0.43374509  0.22013223  1
  H  H370  1  0.89937312  0.37424015  0.17615652  1
  O  O371  1  0.92581690  0.39457045  0.20705380  1
  O  O372  1  0.75255283  0.47086180  0.09767640  1
  H  H373  1  0.58248405  0.11548333  0.24537454  1
  O  O374  1  0.66200138  0.31423507  0.24202456  1
  H  H375  1  0.99770518  0.00859236  0.09073386  1
  H  H376  1  0.88737399  0.27709460  0.24784045  1
  O  O377  1  0.66856760  0.03158560  0.00098698  1
  O  O378  1  0.75553813  0.05594087  0.48876550  1
  C  C379  1  0.91358174  0.04982109  0.47215462  1
  C  C380  1  0.98209576  0.13737453  0.39622158  1
  C  C381  1  0.88039823  0.05348218  0.31947503  1
  O  O382  1  0.84715610  0.14480394  0.27521621  1
  C  C383  1  0.78669466  0.32057413  0.28483158  1
  O  O384  1  0.56127320  0.05355934  0.43374832  1
  C  C385  1  0.59014605  0.00802449  0.45488164  1
  C  C386  1  0.89958478  0.36259143  0.35614900  1
  C  C387  1  0.86743905  0.09058693  0.44188319  1
  C  C388  1  0.82136569  0.10329448  0.30551928  1
  O  O389  1  0.61726210  0.03320908  0.30310519  1
  H  H390  1  0.69338441  0.37909718  0.32444265  1
  O  O391  1  0.75214598  0.11208587  0.32488804  1
  H  H392  1  0.93804463  0.37418663  0.38874016  1
  C  C393  1  0.92670290  0.32414205  0.31489473  1
  C  C394  1  0.86798445  0.30435966  0.28169439  1
  C  C395  1  0.81690251  0.37489630  0.35620535  1
  H  H396  1  0.86049263  0.15685538  0.37852831  1
  Zn  Zn397  1  0.78205657  0.41624051  0.42166322  1
  C  C398  1  0.75748766  0.36337011  0.32178554  1
  O  O399  1  0.87462005  0.30604113  0.44265347  1
  C  C400  1  0.89844287  0.13109328  0.40561745  1
  H  H401  1  0.97708583  0.09113794  0.27340686  1
  O  O402  1  0.74921474  0.32309462  0.46096924  1
  Zn  Zn403  1  0.65662161  0.07522400  0.37565559  1
  O  O404  1  0.72659671  0.12292057  0.43119701  1
  C  C405  1  0.77806275  0.09334205  0.45567506  1
  C  C406  1  0.55000608  0.00655442  0.29758250  1
  C  C407  1  0.81704151  0.29621352  0.46828061  1
  O  O408  1  0.69916226  0.46196101  0.47373779  1
  H  H409  1  0.78738304  0.01139069  0.37135130  1
  C  C410  1  0.95990354  0.05231417  0.29947336  1
  C  C411  1  0.85129566  0.01093273  0.35626094  1
  H  H412  1  0.96209764  0.46966707  0.36729449  1
  H  H413  1  0.93156976  0.47188659  0.28170051  1
  C  C414  1  0.99386581  0.05440324  0.46113142  1
  H  H415  1  0.94797660  0.21946310  0.49850168  1
  C  C416  1  0.87247526  0.47276307  0.26166741  1
  H  H417  1  0.64246163  0.22148654  0.67963090  1
  C  C418  1  0.63625181  0.49225398  0.55321511  1
  C  C419  1  0.89541475  0.22027912  0.52401333  1
  H  H420  1  0.57835892  0.09890471  0.62715364  1
  C  C421  1  0.58027823  0.10947186  0.66703195  1
  C  C422  1  0.97415812  0.15220497  0.58118802  1
  Zn  Zn423  1  0.94004716  0.44885075  0.74081563  1
  C  C424  1  0.82496782  0.25329117  0.51268322  1
  C  C425  1  0.83204064  0.18003713  0.60155940  1
  C  C426  1  0.75885609  0.20964786  0.58791892  1
  C  C427  1  0.75816618  0.24476046  0.54295238  1
  C  C428  1  0.68938074  0.18668000  0.66953366  1
  H  H429  1  0.83849502  0.14822774  0.63290334  1
  H  H430  1  0.70217489  0.47980211  0.62184456  1
  H  H431  1  0.54086281  0.14961884  0.67575965  1
  O  O432  1  0.79065192  0.05238240  0.69546589  1
  C  C433  1  0.66372773  0.12086031  0.68525865  1
  O  O434  1  0.83870128  0.49858463  0.64155409  1
  C  C435  1  0.89578280  0.18483033  0.56846933  1
  O  O436  1  0.69036841  0.21174870  0.61579175  1
  O  O437  1  0.53851472  0.04375745  0.68523530  1
  O  O438  1  0.98266299  0.11480153  0.61715054  1
  H  H439  1  0.74598546  0.19728664  0.68678523  1
  H  H440  1  0.68844030  0.02079701  0.66271184  1
  H  H441  1  0.74444624  0.08632249  0.63114041  1
  O  O442  1  0.74671201  0.42881814  0.54762873  1
  Zn  Zn443  1  0.86045095  0.46004127  0.56386387  1
  C  C444  1  0.69789068  0.45800609  0.51983024  1
  C  C445  1  0.72206338  0.06840352  0.66713395  1
  H  H446  1  0.70147619  0.27096199  0.53496470  1
  H  H447  1  0.67386787  0.06132484  0.74359481  1
  C  C448  1  0.64609315  0.49805096  0.60434359  1
  O  O449  1  0.84971190  0.37936128  0.74214096  1
  C  C450  1  0.83888247  0.00004216  0.67604371  1
  C  C451  1  0.65951773  0.11404971  0.74004706  1
  O  O452  1  0.96238275  0.39625519  0.58422576  1
  H  H453  1  0.93343725  0.00880391  0.72940313  1
  H  H454  1  0.88879381  0.01858524  0.50095393  1
  H  H455  1  0.53732581  0.47491489  0.91069410  1
  C  C456  1  0.70263143  0.40157788  0.88509578  1
  C  C457  1  0.50571455  0.26019240  0.88925894  1
  C  C458  1  0.67657337  0.21823394  0.82896166  1
  C  C459  1  0.65077614  0.27108092  0.80103814  1
  C  C460  1  0.86676624  0.33465258  0.77339190  1
  H  H461  1  0.88693555  0.23736686  0.83446776  1
  H  H462  1  0.63521695  0.18086886  0.84180335  1
  C  C463  1  0.52957399  0.04659749  0.83898189  1
  O  O464  1  0.85579031  0.32849754  0.97066920  1
  C  C465  1  0.51087444  0.23669940  0.80240068  1
  C  C466  1  0.77431001  0.15197519  0.88013333  1
  O  O467  1  0.57631244  0.28446479  0.78571041  1
  O  O468  1  0.71570347  0.12907016  0.90003755  1
  H  H469  1  0.71059201  0.34958226  0.75998585  1
  H  H470  1  0.72572580  0.06006064  0.81189933  1
  O  O471  1  0.52454053  0.20083250  0.90655672  1
  C  C472  1  0.59525271  0.06995259  0.81152368  1
  O  O473  1  0.98931302  0.01251339  0.94320077  1
  C  C474  1  0.77471342  0.38893297  0.90999280  1
  C  C475  1  0.79890147  0.29399459  0.79699003  1
  H  H476  1  0.65235106  0.37038723  0.89350505  1
  H  H477  1  0.60912050  0.10399480  0.94937822  1
  C  C478  1  0.60361893  0.14488984  0.97425276  1
  O  O479  1  0.61930948  0.46784682  0.83362386  1
  C  C480  1  0.83990343  0.46745989  0.86064175  1
  C  C481  1  0.78178067  0.33637822  0.95016392  1
  C  C482  1  0.84498024  0.42140245  0.89838838  1
  O  O483  1  0.58380767  0.11161252  0.77516403  1
  O  O484  1  0.84618649  0.13144195  0.88941824  1
  C  C485  1  0.56356856  0.20023313  0.95784113  1
  H  H486  1  0.54294532  0.30131641  0.98217752  1
  C  C487  1  0.56865286  0.25136501  0.99067751  1
  C  C488  1  0.75519368  0.20490339  0.84375326  1
  H  H489  1  0.90084269  0.40770489  0.91674260  1
  C  C490  1  0.82064593  0.24189613  0.82578467  1
  H  H491  1  0.71052769  0.14161603  0.75690208  1
  H  H492  1  0.53398078  0.18802558  0.81337959  1
  C  C493  1  0.76516487  0.48449802  0.84099223  1
  H  H494  1  0.55979578  0.29117398  0.88522108  1
  Zn  Zn495  1  0.92381141  0.05310210  0.87885949  1
  C  C496  1  0.66987862  0.04429708  0.82744238  1
  C  C497  1  0.69319056  0.45259578  0.85290919  1
  O  O498  1  0.72713286  0.30288670  0.96303567  1
  C  C499  1  0.71886853  0.30622112  0.78433033  1
  C  C500  1  0.97791336  0.01233120  0.98914777  1
  O  O501  1  0.97548728  0.49361217  0.87555508  1
  O  O502  1  0.97593779  0.00208702  0.82166816  1
  O  O503  1  0.93587665  0.32628816  0.78464067  1
  C  C504  1  0.54209603  0.00164209  0.87638625  1
  Zn  Zn505  1  0.91026174  0.25075942  0.99311274  1
  C  C506  1  0.95808187  0.79872703  0.04496913  1
  O  O507  1  0.85037091  0.90442005  0.07744300  1
  O  O508  1  0.59887445  0.65112804  0.15879592  1
  C  C509  1  0.94183161  0.85369119  0.21460075  1
  C  C510  1  0.97343619  0.55384415  0.13420860  1
  O  O511  1  0.97805459  0.60523207  0.16307010  1
  C  C512  1  0.89878730  0.52548705  0.12277112  1
  C  C513  1  0.93193181  0.91730995  0.19788642  1
  C  C514  1  0.86696092  0.95920112  0.20719456  1
  H  H515  1  0.93953352  0.72982882  0.19638497  1
  O  O516  1  0.57579218  0.50148936  0.21119051  1
  O  O517  1  0.50305714  0.84101243  0.22705237  1
  H  H518  1  0.84881930  0.55228281  0.13968342  1
  O  O519  1  0.77691334  0.87052009  0.01595536  1
  C  C520  1  0.80578020  0.93959387  0.23877407  1
  C  C521  1  0.84319521  0.87359890  0.03835456  1
  H  H522  1  0.93625906  0.79294228  0.08248027  1
  H  H523  1  0.97678152  0.93232624  0.17024928  1
  C  C524  1  0.91764301  0.83915600  0.01240815  1
  C  C525  1  0.54085441  0.64671825  0.18590529  1
  C  C526  1  0.87985658  0.83528187  0.24867941  1
  O  O527  1  0.51789465  0.79668210  0.03575387  1
  O  O528  1  0.53429320  0.66644554  0.23059817  1
  H  H529  1  0.97182862  0.71113684  0.11526223  1
  O  O530  1  0.54495179  0.51675845  0.04984105  1
  H  H531  1  0.74904523  0.96824257  0.24415261  1
  C  C532  1  0.53590213  0.51470233  0.00289977  1
  O  O533  1  0.58318400  0.78112521  0.33945265  1
  C  C534  1  0.50084508  0.76728994  0.41014423  1
  O  O535  1  0.81122645  0.91534314  0.42032706  1
  O  O536  1  0.97826379  0.74737770  0.35008652  1
  O  O537  1  0.53610978  0.68404429  0.35834041  1
  C  C538  1  0.92687855  0.50460264  0.46393982  1
  O  O539  1  0.80741298  0.69444973  0.41104169  1
  H  H540  1  0.68622871  0.55268401  0.26495778  1
  H  H541  1  0.77639686  0.67635777  0.38387994  1
  O  O542  1  0.77226593  0.79753531  0.32040927  1
  Zn  Zn543  1  0.88768477  0.62267533  0.40271552  1
  C  C544  1  0.88353203  0.91192443  0.40447060  1
  O  O545  1  0.92399584  0.86161229  0.41103126  1
  C  C546  1  0.98698965  0.96339770  0.34966123  1
  Zn  Zn547  1  0.75684515  0.94892317  0.48329890  1
  Zn  Zn548  1  0.85898723  0.77691505  0.38664858  1
  C  C549  1  0.75794325  0.84824277  0.29672928  1
  O  O550  1  0.86852075  0.51433735  0.43574069  1
  C  C551  1  0.90951681  0.96496392  0.36881774  1
  C  C552  1  0.54694194  0.79535229  0.45165314  1
  C  C553  1  0.81859740  0.56374952  0.31461441  1
  C  C554  1  0.53684698  0.74398504  0.36209949  1
  O  O555  1  0.69681520  0.88226441  0.30324646  1
  Zn  Zn556  1  0.59241333  0.71152659  0.47028485  1
  O  O557  1  0.76511539  0.60212408  0.32784912  1
  H  H558  1  0.87809131  0.78936019  0.26859225  1
  O  O559  1  0.53108514  0.95280684  0.31513528  1
  C  C560  1  0.81581323  0.87760903  0.26013170  1
  Zn  Zn561  1  0.57515364  0.85680601  0.28609058  1
  O  O562  1  0.88638864  0.56525668  0.33541821  1
  C  C563  1  0.80783396  0.51321895  0.27371193  1
  O  O564  1  0.51536396  0.52376395  0.32026634  1
  H  H565  1  0.56125716  0.50912745  0.48887499  1
  O  O566  1  0.64950397  0.97959669  0.43567782  1
  Zn  Zn567  1  0.50012994  0.61837561  0.29795292  1
  C  C568  1  0.73121475  0.51529899  0.25338480  1
  C  C569  1  0.51279125  0.54520424  0.56005091  1
  C  C570  1  0.53970230  0.78731413  0.59076674  1
  C  C571  1  0.82024448  0.73850484  0.65947902  1
  C  C572  1  0.66786483  0.78014264  0.63662715  1
  O  O573  1  0.62344705  0.91576100  0.62266259  1
  H  H574  1  0.74713012  0.58964644  0.62571986  1
  H  H575  1  0.96654076  0.85331532  0.62229000  1
  C  C576  1  0.83103426  0.88303380  0.56960994  1
  H  H577  1  0.54020189  0.73238711  0.58330661  1
  C  C578  1  0.88415158  0.53880115  0.66106714  1
  H  H579  1  0.51068305  0.88571007  0.66262589  1
  H  H580  1  0.66524585  0.98195761  0.54144762  1
  C  C581  1  0.89741936  0.71758595  0.67342060  1
  O  O582  1  0.86145488  0.83609263  0.55165443  1
  H  H583  1  0.69642266  0.81045941  0.60916264  1
  O  O584  1  0.92422867  0.51304444  0.50998638  1
  C  C585  1  0.78796194  0.62747992  0.64051872  1
  C  C586  1  0.54501052  0.76014537  0.67991944  1
  C  C587  1  0.76041711  0.69133857  0.64321752  1
  C  C588  1  0.52065130  0.54818535  0.61202230  1
  C  C589  1  0.52920991  0.53447606  0.72007399  1
  H  H590  1  0.80613491  0.79175308  0.65737672  1
  O  O591  1  0.76612975  0.90895728  0.55082884  1
  C  C592  1  0.86051146  0.91490662  0.61667090  1
  H  H593  1  0.69946189  0.78813683  0.67316315  1
  C  C594  1  0.58240701  0.80261855  0.64135316  1
  H  H595  1  0.76017843  0.97835414  0.61314450  1
  O  O596  1  0.68584386  0.70840521  0.62774530  1
  C  C597  1  0.60014936  0.97033936  0.54366363  1
  C  C598  1  0.95779088  0.92772595  0.68026945  1
  C  C599  1  0.58697725  0.52332920  0.63616940  1
  C  C600  1  0.92217946  0.65299092  0.67693017  1
  O  O601  1  0.56293321  0.80921663  0.54549641  1
  C  C602  1  0.93191461  0.89236192  0.63923742  1
  C  C603  1  0.57573705  0.86942739  0.65906985  1
  H  H604  1  0.60939818  0.87635643  0.69269818  1
  C  C605  1  0.86034221  0.60670493  0.66302809  1
  H  H606  1  0.98452296  0.63931771  0.68816996  1
  C  C607  1  0.57577234  0.93811233  0.58725981  1
  H  H608  1  0.59280686  0.72732981  0.69430588  1
  C  C609  1  0.91306199  0.98233691  0.69604780  1
  C  C610  1  0.81481827  0.96538280  0.63416067  1
  C  C611  1  0.57041461  0.51662791  0.52932719  1
  C  C612  1  0.51171848  0.77617381  0.50172338  1
  H  H613  1  0.52857209  0.78942635  0.71067323  1
  O  O614  1  0.59529010  0.52521880  0.68964238  1
  Zn  Zn615  1  0.98990452  0.77132231  0.69707393  1
  C  C616  1  0.54844581  0.98634706  0.50567565  1
  O  O617  1  0.95293554  0.52162898  0.68157445  1
  H  H618  1  0.62474979  0.94316544  0.92480824  1
  O  O619  1  0.65100636  0.64901129  0.77037278  1
  C  C620  1  0.56279383  0.62532590  0.77944419  1
  H  H621  1  0.65117194  0.55699516  0.82161599  1
  H  H622  1  0.52574189  0.64747100  0.75094721  1
  O  O623  1  0.59724295  0.93468214  0.77972757  1
  C  C624  1  0.78054280  0.78947633  0.77505900  1
  H  H625  1  0.80194652  0.68779096  0.76955884  1
  O  O626  1  0.92900501  0.52028480  0.80192523  1
  C  C627  1  0.76420011  0.97354546  0.87893241  1
  C  C628  1  0.67185388  0.71011717  0.77286473  1
  C  C629  1  0.54344026  0.55577360  0.77569581  1
  C  C630  1  0.61573355  0.97644530  0.89263498  1
  Zn  Zn631  1  0.73134418  0.94991942  0.98451520  1
  C  C632  1  0.75591496  0.72613979  0.77205755  1
  C  C633  1  0.94020946  0.84920457  0.96517183  1
  C  C634  1  0.87042668  0.80449569  0.77686408  1
  O  O635  1  0.56768677  0.54993845  0.97386704  1
  O  O636  1  0.88909360  0.86466303  0.77576122  1
  O  O637  1  0.92402930  0.76467654  0.77210224  1
  C  C638  1  0.72520222  0.84064099  0.77817843  1
  H  H639  1  0.55210646  0.75081583  0.77694906  1
  H  H640  1  0.90622286  0.87611785  0.93646206  1
  O  O641  1  0.77081725  0.93672815  0.91540772  1
  C  C642  1  0.61852718  0.76314044  0.77657339  1
  H  H643  1  0.55702871  0.65287758  0.81591676  1
  C  C644  1  0.64452913  0.82653957  0.78005580  1
  C  C645  1  0.57712787  0.87888206  0.77956414  1
  H  H646  1  0.74443834  0.88948507  0.77463430  1
  Zn  Zn647  1  0.98792609  0.90744309  0.80740263  1
  O  O648  1  0.98580271  0.85995175  0.87347356  1
  O  O649  1  0.82503526  0.99228038  0.85520123  1
  C  C650  1  0.68144951  0.99996437  0.86543747  1
  C  C651  1  0.61696162  0.52324869  0.79620348  1
  H  H652  1  0.76421462  0.52393783  0.81432837  1
  O  O653  1  0.50529839  0.86103257  0.77773344  1
  C  C654  1  0.92100623  0.50004351  0.84607486  1
  H  H655  1  0.65453864  0.50954369  0.76426870  1
