# generated using pymatgen
data_CuH5C6N4O
_symmetry_space_group_name_H-M   'P 1'
_cell_length_a   12.23523084
_cell_length_b   21.09725124
_cell_length_c   11.26979265
_cell_angle_alpha   90.00000000
_cell_angle_beta   90.00000000
_cell_angle_gamma   90.00000000
_symmetry_Int_Tables_number   1
_chemical_formula_structural   CuH5C6N4O
_chemical_formula_sum   'Cu16 H80 C96 N64 O16'
_cell_volume   2909.06863502
_cell_formula_units_Z   16
loop_
 _symmetry_equiv_pos_site_id
 _symmetry_equiv_pos_as_xyz
  1  'x, y, z'
loop_
 _atom_site_type_symbol
 _atom_site_label
 _atom_site_symmetry_multiplicity
 _atom_site_fract_x
 _atom_site_fract_y
 _atom_site_fract_z
 _atom_site_occupancy
  C  C0  1  0.26653790  0.15027819  0.12002279  1
  H  H1  1  0.08450596  0.01662769  0.21903776  1
  C  C2  1  0.23703205  0.07115036  0.48232710  1
  H  H3  1  0.41333116  0.08267658  0.16503368  1
  C  C4  1  0.21342660  0.10914200  0.03336475  1
  C  C5  1  0.37678396  0.13335468  0.15787038  1
  C  C6  1  0.25629006  0.04726593  0.01489522  1
  H  H7  1  0.42254824  0.22003342  0.15362971  1
  C  C8  1  0.18338935  0.12471419  0.45102398  1
  N  N9  1  0.45033593  0.17663642  0.17163237  1
  N  N10  1  0.13751912  0.17243416  0.42865033  1
  C  C11  1  0.21356632  0.21113638  0.15359565  1
  N  N12  1  0.13312481  0.22972657  0.09316649  1
  H  H13  1  0.03101106  0.14592173  0.16928793  1
  H  H14  1  0.17741436  0.20917041  0.47435140  1
  C  C15  1  0.24305937  0.01207150  0.41405142  1
  O  O16  1  0.00619098  0.12743118  0.23638531  1
  N  N17  1  0.06789934  0.17643333  0.00132714  1
  H  H18  1  0.26247354  0.20337734  0.90123830  1
  Cu  Cu19  1  0.43573186  0.00260405  0.90196279  1
  H  H20  1  0.36524123  0.23049417  0.60843965  1
  C  C21  1  0.30696847  0.08223783  0.59451271  1
  C  C22  1  0.33373359  0.03256615  0.67795121  1
  N  N23  1  0.40559619  0.19005106  0.58214869  1
  H  H24  1  0.05475978  0.09397451  0.91215639  1
  C  C25  1  0.35681105  0.14165287  0.59109138  1
  H  H26  1  0.13298884  0.23976042  0.70959935  1
  C  C27  1  0.10507602  0.12171569  0.97713763  1
  C  C28  1  0.31469848  0.24400457  0.86702410  1
  N  N29  1  0.40552849  0.24466888  0.92349725  1
  C  C30  1  0.18005254  0.46096297  0.28758167  1
  N  N31  1  0.09255141  0.45045842  0.22853674  1
  C  C32  1  0.39177623  0.35573634  0.12906128  1
  C  C33  1  0.19973441  0.37874957  0.07810513  1
  C  C34  1  0.28047883  0.42793737  0.26278811  1
  H  H35  1  0.18839542  0.34529993  0.38413828  1
  C  C36  1  0.29456309  0.38864554  0.16008896  1
  C  C37  1  0.37748931  0.43870324  0.34178372  1
  O  O38  1  0.47130498  0.29541391  0.44326031  1
  H  H39  1  0.14778269  0.35349298  0.26906231  1
  N  N40  1  0.10428879  0.39818693  0.10759591  1
  O  O41  1  0.16069753  0.32099710  0.32389586  1
  N  N42  1  0.47121658  0.41454043  0.31364274  1
  H  H43  1  0.38983578  0.47198340  0.41639908  1
  H  H44  1  0.19296069  0.34742921  0.00344899  1
  H  H45  1  0.40463851  0.32399031  0.05573651  1
  H  H46  1  0.46641327  0.31781633  0.37093771  1
  H  H47  1  0.01559603  0.26876342  0.26227841  1
  H  H48  1  0.16400985  0.49716511  0.35413657  1
  H  H49  1  0.05247056  0.41330711  0.48248050  1
  N  N50  1  0.47964979  0.36639065  0.18945140  1
  H  H51  1  0.24713428  0.25375497  0.20719910  1
  N  N52  1  0.26949035  0.35438208  0.56040540  1
  C  C53  1  0.14192200  0.44550494  0.82583710  1
  C  C54  1  0.35836790  0.36370124  0.62339883  1
  C  C55  1  0.29663050  0.28602070  0.76367389  1
  C  C56  1  0.17252894  0.47800133  0.71593321  1
  H  H57  1  0.20075904  0.42718359  0.89111799  1
  C  C58  1  0.38018363  0.33196831  0.73187106  1
  H  H59  1  0.40860682  0.39999891  0.57547643  1
  N  N60  1  0.18867178  0.31102767  0.59393600  1
  N  N61  1  0.04042469  0.44325655  0.86053357  1
  C  C62  1  0.29135729  0.48271825  0.69281973  1
  H  H63  1  0.35505595  0.46460506  0.75081996  1
  H  H64  1  0.02029320  0.28838505  0.97784875  1
  O  O65  1  0.02171461  0.32937381  0.94751709  1
  C  C66  1  0.19805985  0.27532987  0.69490219  1
  H  H67  1  0.05085157  0.35039640  0.67085784  1
  C  C68  1  0.48436240  0.33954449  0.79747016  1
  N  N69  1  0.49932674  0.30028000  0.88187985  1
  C  C70  1  0.12493192  0.70960043  0.03412892  1
  H  H71  1  0.20032838  0.73070833  0.34734224  1
  H  H72  1  0.45355007  0.63220095  0.11043663  1
  N  N73  1  0.33462590  0.68161253  0.10774985  1
  H  H74  1  0.20950947  0.68955408  0.24347578  1
  O  O75  1  0.15659944  0.70184254  0.30630189  1
  N  N76  1  0.26932002  0.63322752  0.07347423  1
  C  C77  1  0.45565098  0.72028796  0.36016533  1
  C  C78  1  0.16940651  0.64842410  0.03146191  1
  H  H79  1  0.12060089  0.60828733  0.00751331  1
  N  N80  1  0.36491450  0.72651349  0.41344320  1
  H  H81  1  0.07821569  0.56262079  0.46679937  1
  H  H82  1  0.02578437  0.62497795  0.36962673  1
  C  C83  1  0.30670625  0.74269290  0.09521737  1
  C  C84  1  0.00414512  0.70568279  0.00953028  1
  N  N85  1  0.23497880  0.54243349  0.50857674  1
  N  N86  1  0.36751263  0.54802931  0.89395289  1
  H  H87  1  0.48416135  0.60789356  0.69387749  1
  C  C88  1  0.13297086  0.53900335  0.53594960  1
  H  H89  1  0.34724898  0.57836667  0.96679470  1
  H  H90  1  0.21410699  0.72773437  0.55125856  1
  H  H91  1  0.03918355  0.61928491  0.68914646  1
  C  C92  1  0.01496516  0.70543446  0.66674807  1
  C  C93  1  0.46306270  0.54330326  0.88497613  1
  H  H94  1  0.28975883  0.62674904  0.76172936  1
  H  H95  1  0.25562406  0.60682080  0.64714542  1
  O  O96  1  0.24106782  0.63830201  0.70150477  1
  N  N97  1  0.32633733  0.51278501  0.60333913  1
  C  C98  1  0.09149147  0.50455701  0.64095588  1
  C  C99  1  0.47607222  0.69581122  0.69390834  1
  H  H100  1  0.00975740  0.54851158  0.87637059  1
  N  N101  1  0.45784598  0.64847772  0.64224407  1
  H  H102  1  0.49184253  0.55978793  0.50403709  1
  N  N103  1  0.47924065  0.51725181  0.54924478  1
  C  C104  1  0.33604048  0.84856394  0.34403116  1
  C  C105  1  0.44152577  0.83883982  0.28551679  1
  N  N106  1  0.05797253  0.86863886  0.46421087  1
  O  O107  1  0.12133811  0.98689269  0.17268887  1
  H  H108  1  0.37669342  0.77590384  0.10944888  1
  H  H109  1  0.29149360  0.89218477  0.34745268  1
  H  H110  1  0.06091419  0.89784179  0.39027343  1
  Cu  Cu111  1  0.26319600  0.96612566  0.17578180  1
  C  C112  1  0.17131608  0.83063113  0.06643339  1
  N  N113  1  0.29753105  0.80128016  0.40236200  1
  N  N114  1  0.23348896  0.87415504  0.10757708  1
  H  H115  1  0.30713555  0.85466374  0.12751478  1
  O  O116  1  0.41408724  0.94346283  0.20805554  1
  N  N117  1  0.24619491  0.96866521  0.35682182  1
  C  C118  1  0.46819489  0.89207113  0.20831215  1
  N  N119  1  0.16573490  0.81059998  0.48607451  1
  C  C120  1  0.20152902  0.76097877  0.06338784  1
  H  H121  1  0.08942426  0.85216389  0.04733941  1
  C  C122  1  0.49025109  0.77677952  0.28778359  1
  H  H123  1  0.10527178  0.96998618  0.00144417  1
  C  C124  1  0.44603057  0.86169966  0.83500038  1
  N  N125  1  0.35696363  0.99435666  0.74404334  1
  O  O126  1  0.21977641  0.88084372  0.69123864  1
  H  H127  1  0.26497484  0.86171462  0.63888055  1
  N  N128  1  0.11176674  0.95661646  0.83356392  1
  H  H129  1  0.47451026  0.90643562  0.51221501  1
  Cu  Cu130  1  0.26009249  0.93556791  0.85887793  1
  N  N131  1  0.41798980  0.89700605  0.90559595  1
  N  N132  1  0.45417131  0.89347025  0.59697855  1
  C  C133  1  0.04786402  0.97042880  0.91900808  1
  H  H134  1  0.42489055  0.79635153  0.54252459  1
  C  C135  1  0.14684775  0.76327182  0.55141215  1
  C  C136  1  0.43903286  0.83223147  0.61761790  1
  Cu  Cu137  1  0.11573310  0.93835816  0.65534282  1
  C  C138  1  0.46136293  0.81690597  0.73836984  1
  C  C139  1  0.04230407  0.76338190  0.61747515  1
  N  N140  1  0.29335375  0.99856997  0.99644665  1
  O  O141  1  0.00313171  0.99570917  0.63001345  1
  N  N142  1  0.59019832  0.13140740  0.45252860  1
  N  N143  1  0.61332177  0.24284679  0.31891561  1
  N  N144  1  0.92187674  0.05777543  0.21631634  1
  Cu  Cu145  1  0.96797838  0.16233830  0.38061794  1
  Cu  Cu146  1  0.61322315  0.17715871  0.19552157  1
  C  C147  1  0.63154117  0.04387128  0.29574708  1
  H  H148  1  0.63133689  0.03222784  0.20303913  1
  C  C149  1  0.90904998  0.03493895  0.12506571  1
  N  N150  1  0.61447254  0.10550699  0.30386686  1
  N  N151  1  0.63535363  0.12750023  0.05103451  1
  H  H152  1  0.79270645  0.13804737  0.04216533  1
  Cu  Cu153  1  0.52061991  0.21601098  0.44965128  1
  H  H154  1  0.56785933  0.11265905  0.00356927  1
  N  N155  1  0.94474928  0.24590314  0.29228410  1
  C  C156  1  0.88490185  0.17233535  0.88054803  1
  C  C157  1  0.85792151  0.11567893  0.69319260  1
  N  N158  1  0.93468458  0.20709938  0.93376844  1
  C  C159  1  0.82542585  0.12348501  0.81729950  1
  C  C160  1  0.73032255  0.09282081  0.87208392  1
  N  N161  1  0.88294836  0.11037343  0.59489625  1
  H  H162  1  0.90383959  0.22083130  0.56854030  1
  N  N163  1  0.56887370  0.02443879  0.80500502  1
  C  C164  1  0.64707424  0.05290908  0.82411376  1
  H  H165  1  0.59526931  0.11332134  0.62306894  1
  H  H166  1  0.73312175  0.01449653  0.68447123  1
  C  C167  1  0.72364338  0.11977984  0.99216216  1
  C  C168  1  0.61451576  0.09312008  0.53518633  1
  O  O169  1  0.92543642  0.18148098  0.52711487  1
  C  C170  1  0.65408546  0.02769045  0.50733627  1
  H  H171  1  0.97928107  0.02894714  0.67324907  1
  C  C172  1  0.76812926  0.30053658  0.22475771  1
  H  H173  1  0.65879286  0.30992465  0.39890910  1
  Cu  Cu174  1  0.72384943  0.46147241  0.24370166  1
  N  N175  1  0.85272632  0.44519726  0.12252088  1
  Cu  Cu176  1  0.94963453  0.48267777  0.25947687  1
  H  H177  1  0.62236878  0.40316631  0.46542765  1
  C  C178  1  0.74330925  0.34162516  0.11937197  1
  C  C179  1  0.67704456  0.28385997  0.31677518  1
  C  C180  1  0.80391359  0.39837264  0.11633807  1
  N  N181  1  0.90509591  0.43470125  0.39713978  1
  H  H182  1  0.55381732  0.34526698  0.17535664  1
  N  N183  1  0.76337464  0.42823536  0.39224300  1
  C  C184  1  0.86473469  0.27390937  0.26032410  1
  C  C185  1  0.71144551  0.40056827  0.47871386  1
  C  C186  1  0.66966515  0.32232672  0.02776145  1
  C  C187  1  0.95808941  0.40403425  0.47701205  1
  Cu  Cu188  1  0.97474693  0.40550359  0.00484728  1
  C  C189  1  0.96503844  0.33805669  0.65347527  1
  H  H190  1  0.96782199  0.28555099  0.80353228  1
  N  N191  1  0.92309582  0.29964776  0.72906939  1
  H  H192  1  0.55223571  0.37445045  0.78780312  1
  C  C193  1  0.72327211  0.32595334  0.64787199  1
  C  C194  1  0.77853693  0.36762770  0.56868198  1
  N  N195  1  0.77548098  0.29001262  0.72121794  1
  C  C196  1  0.89737148  0.36869992  0.56484632  1
  H  H197  1  0.63681350  0.31919286  0.65229490  1
  H  H198  1  0.76615007  0.47083234  0.65172002  1
  N  N199  1  0.94369249  0.48201471  0.77044061  1
  N  N200  1  0.63345136  0.29862005  0.94577791  1
  C  C201  1  0.72790211  0.49062569  0.73117055  1
  H  H202  1  0.74376171  0.25878354  0.77840800  1
  H  H203  1  0.86520494  0.67852608  0.12017402  1
  N  N204  1  0.72695540  0.54544481  0.28661931  1
  C  C205  1  0.81474077  0.65016659  0.19406741  1
  H  H206  1  0.62572336  0.71967605  0.21673966  1
  Cu  Cu207  1  0.86559810  0.53699016  0.06406162  1
  C  C208  1  0.69432637  0.57878727  0.37562307  1
  N  N209  1  0.80577384  0.58977299  0.18025402  1
  O  O210  1  0.53098889  0.63294130  0.10070315  1
  H  H211  1  0.63193021  0.57163838  0.03865012  1
  C  C212  1  0.78008984  0.68151611  0.30631070  1
  C  C213  1  0.71612319  0.64728164  0.39246337  1
  H  H214  1  0.64758349  0.54976682  0.44582532  1
  H  H215  1  0.54081089  0.66840890  0.04292512  1
  O  O216  1  0.98645322  0.58828613  0.35159574  1
  H  H217  1  0.91640730  0.60946389  0.33973029  1
  C  C218  1  0.81889535  0.74488299  0.33616818  1
  C  C219  1  0.68290581  0.68453702  0.49428180  1
  H  H220  1  0.50452289  0.67541321  0.36700883  1
  N  N221  1  0.63197010  0.72632664  0.93969401  1
  N  N222  1  0.75367594  0.53488087  0.94508908  1
  H  H223  1  0.77244863  0.69476092  0.69205097  1
  Cu  Cu224  1  0.87728096  0.63478776  0.85164310  1
  H  H225  1  0.91168082  0.53045856  0.62817735  1
  O  O226  1  0.77285045  0.68295697  0.77262052  1
  N  N227  1  0.91329999  0.69918009  0.99141846  1
  C  C228  1  0.57570079  0.53372783  0.85961513  1
  C  C229  1  0.57469142  0.73643807  0.86335426  1
  C  C230  1  0.65226078  0.54751238  0.95484665  1
  H  H231  1  0.62414356  0.67042744  0.56256993  1
  O  O232  1  0.98771588  0.58593889  0.90948777  1
  C  C233  1  0.54163680  0.51379740  0.64154821  1
  C  C234  1  0.97614166  0.50605574  0.67138239  1
  N  N235  1  0.98530144  0.65787418  0.71386577  1
  C  C236  1  0.61115961  0.50828788  0.74429047  1
  C  C237  1  0.50397898  0.74933667  0.76440203  1
  Cu  Cu238  1  0.79229990  0.74366356  0.88618478  1
  N  N239  1  0.79700637  0.50134796  0.81250453  1
  N  N240  1  0.70853084  0.74371779  0.50882481  1
  H  H241  1  0.65518591  0.84656773  0.46621837  1
  N  N242  1  0.54472874  0.87753146  0.12860860  1
  N  N243  1  0.61505880  0.80512966  0.13556540  1
  N  N244  1  0.78045756  0.77362185  0.43170388  1
  H  H245  1  0.68676876  0.80801524  0.07804716  1
  H  H246  1  0.62437106  0.90344676  0.29480982  1
  C  C247  1  0.58149183  0.76388307  0.21409936  1
  N  N248  1  0.65417464  0.89563128  0.46953480  1
  C  C249  1  0.63798050  0.93074281  0.37634049  1
  C  C250  1  0.76723738  0.96988153  0.05183156  1
  H  H251  1  0.87849038  0.77588917  0.29205840  1
  C  C252  1  0.87709570  0.99761966  0.02499955  1
  H  H253  1  0.72118994  0.97630011  0.13502802  1
  H  H254  1  0.89398074  0.89469681  0.48383842  1
  C  C255  1  0.64404027  0.99818260  0.39338238  1
  C  C256  1  0.96213356  0.86259084  0.51407707  1
  Cu  Cu257  1  0.51138414  0.95411207  0.69810929  1
  N  N258  1  0.79248085  0.80873423  0.74514758  1
  C  C259  1  0.95719729  0.81320215  0.60474270  1
  N  N260  1  0.69833214  0.93074485  0.60387285  1
  N  N261  1  0.77367992  0.92731268  0.83828394  1
  C  C262  1  0.92879652  0.98164032  0.91292458  1
  H  H263  1  0.90536958  0.93651291  0.72476642  1
  Cu  Cu264  1  0.56958275  0.91468673  0.98182266  1
  Cu  Cu265  1  0.67639067  0.87817421  0.74112460  1
  C  C266  1  0.86470213  0.81354764  0.68197137  1
  C  C267  1  0.86969716  0.94869799  0.81630886  1
  O  O268  1  0.80107562  0.80852708  0.98018516  1
  C  C269  1  0.69627981  0.99124986  0.60634554  1
  H  H270  1  0.78619464  0.85128609  0.95489095  1
  N  N271  1  0.71859028  0.93806387  0.97745815  1
