# generated using pymatgen
data_Zn5H30C56(N2O9)2
_symmetry_space_group_name_H-M   'P 1'
_cell_length_a   15.22441971
_cell_length_b   10.46796210
_cell_length_c   28.66405021
_cell_angle_alpha   90.00000000
_cell_angle_beta   90.00000000
_cell_angle_gamma   90.00000000
_symmetry_Int_Tables_number   1
_chemical_formula_structural   Zn5H30C56(N2O9)2
_chemical_formula_sum   'Zn20 H120 C224 N16 O72'
_cell_volume   4568.15094511
_cell_formula_units_Z   4
loop_
 _symmetry_equiv_pos_site_id
 _symmetry_equiv_pos_as_xyz
  1  'x, y, z'
loop_
 _atom_site_type_symbol
 _atom_site_label
 _atom_site_symmetry_multiplicity
 _atom_site_fract_x
 _atom_site_fract_y
 _atom_site_fract_z
 _atom_site_occupancy
  C  C0  1  0.18076771  0.15242590  0.24129528  1
  C  C1  1  0.15334583  0.20055706  0.16031488  1
  C  C2  1  0.46130747  0.23165173  0.22782258  1
  H  H3  1  0.32671960  0.30536988  0.23222812  1
  C  C4  1  0.13552122  0.22482595  0.20688906  1
  C  C5  1  0.21213179  0.10528929  0.14718488  1
  O  O6  1  0.36151471  0.27810432  0.02962792  1
  H  H7  1  0.08756938  0.30080570  0.21950654  1
  H  H8  1  0.11423153  0.25150329  0.13445974  1
  H  H9  1  0.31250616  0.35823959  0.14919875  1
  O  O10  1  0.24918112  0.47621142  0.07808298  1
  C  C11  1  0.27690486  0.41956777  0.17280700  1
  C  C12  1  0.23249409  0.10169889  0.09765440  1
  O  O13  1  0.28043114  0.01662451  0.07827257  1
  C  C14  1  0.28927529  0.38918178  0.22042820  1
  O  O15  1  0.18974177  0.17925219  0.07371675  1
  H  H16  1  0.44509781  0.09330345  0.16814434  1
  H  H17  1  0.38000273  0.30586608  0.06036406  1
  C  C18  1  0.46333696  0.19312809  0.18056591  1
  Zn  Zn19  1  0.39158100  0.05972111  0.03200732  1
  Zn  Zn20  1  0.23358394  0.33583838  0.02577085  1
  C  C21  1  0.48682277  0.36480102  0.23997010  1
  C  C22  1  0.24120110  0.05054891  0.22703416  1
  O  O23  1  0.48669464  0.12853399  0.08530490  1
  C  C24  1  0.25580529  0.02780606  0.18008110  1
  C  C25  1  0.49083615  0.28652643  0.14898908  1
  Zn  Zn26  1  0.46497246  0.38483243  0.00192180  1
  C  C27  1  0.48241522  0.35860930  0.29083716  1
  C  C28  1  0.21869664  0.10816281  0.38504787  1
  O  O29  1  0.20030873  0.15373474  0.46843594  1
  O  O30  1  0.48844541  0.15055122  0.44538028  1
  C  C31  1  0.26754684  0.44632551  0.38573147  1
  C  C32  1  0.24306374  0.48250741  0.30456953  1
  H  H33  1  0.40337604  0.07519548  0.26814692  1
  H  H34  1  0.31472572  0.31617845  0.33109592  1
  C  C35  1  0.48230885  0.29997329  0.38555448  1
  C  C36  1  0.23623763  0.09046532  0.43535173  1
  C  C37  1  0.16348941  0.21355123  0.37345087  1
  Zn  Zn38  1  0.22538976  0.36002876  0.49602411  1
  C  C39  1  0.18808581  0.15222611  0.29323168  1
  H  H40  1  0.13622356  0.26692519  0.40249971  1
  C  C41  1  0.45329388  0.23494681  0.30899221  1
  Zn  Zn42  1  0.40643703  0.05792250  0.49156811  1
  C  C43  1  0.14442499  0.23746292  0.32588944  1
  N  N44  1  0.43905220  0.16427843  0.26779942  1
  C  C45  1  0.27642387  0.40254292  0.34089352  1
  H  H46  1  0.10883118  0.32306315  0.31467522  1
  C  C47  1  0.45070815  0.20018826  0.35668369  1
  C  C48  1  0.24259151  0.04757958  0.30625416  1
  H  H49  1  0.42966392  0.10365452  0.36727473  1
  H  H50  1  0.29144160  0.38449501  0.41316171  1
  O  O51  1  0.09620414  0.39661639  0.49197478  1
  C  C52  1  0.26106110  0.02557539  0.35337415  1
  O  O53  1  0.29407834  0.01175233  0.44649230  1
  C  C54  1  0.24442247  0.47307924  0.25349660  1
  C  C55  1  0.18006627  0.36681167  0.73482466  1
  C  C56  1  0.20803229  0.26725933  0.59694060  1
  O  O57  1  0.41241267  0.02288395  0.56578757  1
  C  C58  1  0.43133682  0.07243930  0.64752346  1
  C  C59  1  0.18995023  0.28776234  0.64724584  1
  C  C60  1  0.21481063  0.23425865  0.72464205  1
  C  C61  1  0.15295477  0.41152855  0.65560054  1
  C  C62  1  0.45914609  0.14100613  0.72543598  1
  O  O63  1  0.20190925  0.36595296  0.57189555  1
  H  H64  1  0.36901430  0.31352409  0.71199607  1
  C  C65  1  0.44394036  0.09849124  0.59585844  1
  C  C66  1  0.41878165  0.02064753  0.73890645  1
  H  H67  1  0.25811798  0.10671009  0.66812637  1
  C  C68  1  0.13657616  0.44405860  0.70133993  1
  C  C69  1  0.46727101  0.16495762  0.67763500  1
  C  C70  1  0.22475634  0.19359279  0.67889930  1
  C  C71  1  0.40343725  0.43619464  0.65759807  1
  H  H72  1  0.36741216  0.37313963  0.63255749  1
  Zn  Zn73  1  0.14087691  0.05886428  0.53416612  1
  C  C74  1  0.39951742  0.40600795  0.70448343  1
  H  H75  1  0.01935835  0.26428671  0.72968969  1
  Zn  Zn76  1  0.47478219  0.36867630  0.53550501  1
  O  O77  1  0.22581433  0.15690242  0.58078062  1
  O  O78  1  0.47441815  0.20663705  0.58705375  1
  O  O79  1  0.36185229  0.27197431  0.51033915  1
  H  H80  1  0.13777972  0.48195702  0.62783776  1
  H  H81  1  0.35712122  0.20987724  0.53473591  1
  H  H82  1  0.09217531  0.47135064  0.50887879  1
  H  H83  1  0.03275317  0.19537850  0.63541611  1
  C  C84  1  0.43853587  0.48850509  0.73829740  1
  H  H85  1  0.25473540  0.14308674  0.86873631  1
  N  N86  1  0.23370893  0.17193061  0.76702943  1
  Zn  Zn87  1  0.01597239  0.36957059  0.96198967  1
  C  C88  1  0.17632291  0.36880322  0.78489397  1
  O  O89  1  0.42447022  0.05550308  0.96241568  1
  C  C90  1  0.44153272  0.09971894  0.88413397  1
  H  H91  1  0.25379959  0.08312066  0.77147075  1
  O  O92  1  0.14650801  0.39706606  0.95917072  1
  C  C93  1  0.21652796  0.25046404  0.80428373  1
  O  O94  1  0.22364811  0.22790912  0.95689653  1
  C  C95  1  0.18867795  0.32392342  0.88257401  1
  C  C96  1  0.14695352  0.46975132  0.81560701  1
  C  C97  1  0.45278598  0.13671489  0.93437157  1
  C  C98  1  0.22119681  0.22546321  0.85316892  1
  C  C99  1  0.18664976  0.31407236  0.93479190  1
  C  C100  1  0.38580392  0.42522171  0.82136759  1
  H  H101  1  0.34629859  0.40491377  0.89328618  1
  C  C102  1  0.15267228  0.43923148  0.86278337  1
  H  H103  1  0.35494567  0.33194143  0.80759925  1
  C  C104  1  0.38014095  0.46231081  0.86817501  1
  H  H105  1  0.00285701  0.25371680  0.83212004  1
  C  C106  1  0.42117279  0.02065280  0.79142224  1
  C  C107  1  0.46886681  0.13293084  0.80423220  1
  O  O108  1  0.48688154  0.23906103  0.94741004  1
  C  C109  1  0.48271411  0.17289588  0.85021899  1
  N  N110  1  0.49028118  0.21459008  0.76436067  1
  H  H111  1  0.10018355  0.01658521  0.76880948  1
  O  O112  1  0.16483494  0.64295264  0.09234243  1
  H  H113  1  0.14223580  0.68787215  0.17914301  1
  C  C114  1  0.18091028  0.60691722  0.18812461  1
  C  C115  1  0.01890315  0.85401611  0.07865489  1
  H  H116  1  0.03046106  0.50683192  0.10757798  1
  C  C117  1  0.43489300  0.82035810  0.14445598  1
  O  O118  1  0.44083830  0.86787467  0.05989639  1
  C  C119  1  0.48639081  0.85769070  0.23886828  1
  C  C120  1  0.41628581  0.76318892  0.22633961  1
  O  O121  1  0.33587983  0.75332159  0.08562394  1
  H  H122  1  0.30008861  0.95056724  0.16691675  1
  H  H123  1  0.33858732  0.67999010  0.16990760  1
  O  O124  1  0.09403068  0.89948879  0.07341288  1
  H  H125  1  0.10223408  0.93913850  0.16413557  1
  Zn  Zn126  1  0.21595902  0.81213298  0.05437332  1
  C  C127  1  0.40346134  0.81659850  0.09544983  1
  C  C128  1  0.19132986  0.57596975  0.23528773  1
  C  C129  1  0.39493701  0.74523535  0.17834525  1
  C  C130  1  0.03953100  0.88515695  0.16649814  1
  H  H131  1  0.00430697  0.55647334  0.19143157  1
  C  C132  1  0.21077961  0.55039008  0.10495844  1
  C  C133  1  0.22251736  0.52036842  0.15569785  1
  C  C134  1  0.00399433  0.85363637  0.20977370  1
  C  C135  1  0.17535814  0.62986038  0.36234198  1
  H  H136  1  0.29992940  0.94659751  0.36216434  1
  C  C137  1  0.18562704  0.59090504  0.31586987  1
  H  H138  1  0.33038367  0.65311370  0.26835620  1
  C  C139  1  0.49481778  0.86095538  0.28900535  1
  O  O140  1  0.48130337  0.90454088  0.45976806  1
  C  C141  1  0.46066923  0.82718032  0.38266211  1
  H  H142  1  0.31987117  0.89741781  0.26823365  1
  N  N143  1  0.27876445  0.98028842  0.26590391  1
  H  H144  1  0.12958405  0.70572790  0.36862843  1
  C  C145  1  0.21054207  0.61085237  0.44556812  1
  O  O146  1  0.16912944  0.70933305  0.45187233  1
  C  C147  1  0.41097029  0.74837233  0.35354887  1
  C  C148  1  0.44806219  0.81825832  0.43359265  1
  H  H149  1  0.36235542  0.68313708  0.36701565  1
  C  C150  1  0.42820991  0.76549414  0.30477419  1
  H  H151  1  0.10072973  0.71100404  0.27108245  1
  C  C152  1  0.21910245  0.56070756  0.39672200  1
  O  O153  1  0.08758032  0.93865864  0.49269537  1
  O  O154  1  0.40165786  0.73407830  0.45186564  1
  N  N155  1  0.38502516  0.71088780  0.26690674  1
  O  O156  1  0.25623191  0.55772981  0.47891858  1
  H  H157  1  0.12114769  0.96460664  0.46681829  1
  H  H158  1  0.01611649  0.91322444  0.35931646  1
  N  N159  1  0.15758413  0.65132248  0.27379311  1
  Zn  Zn160  1  0.04999301  0.74790996  0.49486925  1
  H  H161  1  0.07620076  0.95932752  0.26787265  1
  H  H162  1  0.00554328  0.52886191  0.28042569  1
  N  N163  1  0.03137294  0.89129645  0.25622858  1
  C  C164  1  0.38687178  0.92254219  0.70971028  1
  O  O165  1  0.02595048  0.62264841  0.55180065  1
  H  H166  1  0.29367806  0.64030211  0.64318967  1
  H  H167  1  0.31159877  0.58860620  0.73461295  1
  C  C168  1  0.39874272  0.95430419  0.66238245  1
  O  O169  1  0.15387230  0.89726936  0.58925428  1
  C  C170  1  0.21424491  0.80378313  0.65570586  1
  H  H171  1  0.37398346  0.88594204  0.63592296  1
  C  C172  1  0.47999506  0.60879672  0.72297597  1
  C  C173  1  0.16659971  0.88493693  0.68503619  1
  C  C174  1  0.20381066  0.81518317  0.60345168  1
  C  C175  1  0.44433992  0.55497768  0.64312073  1
  Zn  Zn176  1  0.33913084  0.70495528  0.51620543  1
  O  O177  1  0.39763348  0.51354960  0.56350416  1
  C  C178  1  0.27331245  0.66829920  0.71992538  1
  C  C179  1  0.42643866  0.59626383  0.59245051  1
  H  H180  1  0.36336179  0.82754710  0.72250839  1
  O  O181  1  0.24262302  0.73803481  0.57616797  1
  C  C182  1  0.48107890  0.64025500  0.67435221  1
  O  O183  1  0.43635582  0.70571635  0.57634246  1
  C  C184  1  0.26295705  0.69931579  0.67223036  1
  C  C185  1  0.17626578  0.86156060  0.73312416  1
  H  H186  1  0.10639257  0.53644805  0.71203251  1
  H  H187  1  0.12366430  0.95592992  0.66816038  1
  H  H188  1  0.05024410  0.68729915  0.63855972  1
  H  H189  1  0.03569195  0.77522986  0.73280660  1
  C  C190  1  0.00370505  0.61228530  0.65092994  1
  H  H191  1  0.11515026  0.55926422  0.80254622  1
  C  C192  1  0.21060350  0.75611050  0.80169326  1
  C  C193  1  0.39400607  0.98219800  0.87551374  1
  O  O194  1  0.21838553  0.82078573  0.97614973  1
  C  C195  1  0.13793483  0.90321318  0.85997305  1
  C  C196  1  0.16724233  0.86586375  0.94636425  1
  H  H197  1  0.30430880  0.62079742  0.83228897  1
  C  C198  1  0.25626776  0.69689137  0.83895698  1
  N  N199  1  0.13242787  0.92735662  0.77136183  1
  H  H200  1  0.26678090  0.70602657  0.91661781  1
  O  O201  1  0.10441076  0.93543706  0.95980176  1
  C  C202  1  0.43205254  0.61253127  0.93405916  1
  C  C203  1  0.15390042  0.86256744  0.81400911  1
  C  C204  1  0.18015789  0.83830976  0.89513496  1
  C  C205  1  0.23440498  0.73415858  0.88373456  1
  C  C206  1  0.22925674  0.75521466  0.75012334  1
  H  H207  1  0.34474827  0.85555151  0.82424731  1
  C  C208  1  0.38359589  0.94251226  0.82862004  1
  C  C209  1  0.42292164  0.57672260  0.88294654  1
  C  C210  1  0.46908507  0.62718813  0.80320471  1
  H  H211  1  0.36735881  0.91149486  0.90135275  1
  C  C212  1  0.45985073  0.66086053  0.85056697  1
  H  H213  1  0.12543617  0.50691904  0.88932408  1
  H  H214  1  0.02051589  0.75482195  0.83021764  1
  H  H215  1  0.10036921  0.98883178  0.86873225  1
  O  O216  1  0.47841476  0.70650951  0.94624966  1
  H  H217  1  0.49078412  0.75082112  0.86490862  1
  O  O218  1  0.00811671  0.70845728  0.91533751  1
  C  C219  1  0.43179394  0.50360945  0.78983512  1
  O  O220  1  0.38979468  0.54139205  0.96009955  1
  C  C221  1  0.99126597  0.45914729  0.17622957  1
  C  C222  1  0.50217927  0.24203844  0.09912692  1
  C  C223  1  0.75140024  0.06508647  0.06944062  1
  C  C224  1  0.76865997  0.42913392  0.16363636  1
  H  H225  1  0.89723563  0.04870366  0.21546168  1
  C  C226  1  0.73363253  0.07989487  0.12127264  1
  H  H227  1  0.79526426  0.33878773  0.17447800  1
  C  C228  1  0.93058440  0.21404373  0.13773324  1
  H  H229  1  0.80812134  0.42665791  0.09026236  1
  H  H230  1  0.89794917  0.13213903  0.11799911  1
  C  C231  1  0.66861068  0.21239672  0.18048197  1
  O  O232  1  0.74215530  0.15619306  0.04040453  1
  C  C233  1  0.95355375  0.35822993  0.20308698  1
  N  N234  1  0.89862695  0.14646472  0.22233573  1
  H  H235  1  0.62716553  0.29297814  0.19103047  1
  H  H236  1  0.66905821  0.25875176  0.10566594  1
  C  C237  1  0.69260963  0.11695214  0.21308122  1
  C  C238  1  0.68936890  0.19426104  0.13474919  1
  C  C239  1  0.97004331  0.31460362  0.11066947  1
  O  O240  1  0.52574761  0.32522446  0.07202209  1
  C  C241  1  0.77085582  0.47778800  0.11778461  1
  C  C242  1  0.93065269  0.22989795  0.18602688  1
  O  O243  1  0.95327372  0.20689480  0.03694369  1
  C  C244  1  0.74070537  0.00473230  0.19832568  1
  C  C245  1  0.97418172  0.30915061  0.05863161  1
  C  C246  1  0.51039222  0.41570809  0.16038020  1
  O  O247  1  0.98657462  0.40974904  0.03537061  1
  C  C248  1  0.71715511  0.47459881  0.24726371  1
  C  C249  1  0.99928762  0.43262178  0.12879374  1
  C  C250  1  0.51390030  0.45810411  0.20687532  1
  H  H251  1  0.51894168  0.47982330  0.13188334  1
  O  O252  1  0.84473375  0.23071588  0.47979949  1
  C  C253  1  0.75720046  0.38625740  0.27772375  1
  C  C254  1  0.94890955  0.21697194  0.39122316  1
  C  C255  1  0.66282014  0.17565772  0.34607546  1
  C  C256  1  0.68410551  0.12045912  0.26570856  1
  H  H257  1  0.61160156  0.29073372  0.28795153  1
  Zn  Zn258  1  0.70260210  0.30589739  0.47044637  1
  C  C259  1  0.91074040  0.16438786  0.31029374  1
  C  C260  1  0.75019590  0.40543129  0.32492074  1
  C  C261  1  0.64587471  0.20036690  0.29872435  1
  O  O262  1  0.54029851  0.33969191  0.46381996  1
  H  H263  1  0.64102594  0.24190045  0.37210220  1
  Zn  Zn264  1  0.88108996  0.01796508  0.46679978  1
  O  O265  1  0.68398437  0.11972473  0.43785952  1
  O  O266  1  0.93461643  0.10322961  0.40345925  1
  C  C267  1  0.72430551  0.05093399  0.40937108  1
  H  H268  1  0.88992379  0.06723263  0.32189962  1
  C  C269  1  0.96960122  0.38647367  0.33326004  1
  H  H270  1  0.77647563  0.33053760  0.34888860  1
  O  O271  1  0.97728920  0.30029961  0.41872421  1
  C  C272  1  0.50570382  0.26301694  0.43589290  1
  C  C273  1  0.94156915  0.25533043  0.34134223  1
  C  C274  1  0.71246458  0.06712506  0.35802186  1
  O  O275  1  0.73621650  0.43785466  0.41863894  1
  H  H276  1  0.80060036  0.30886131  0.26471749  1
  C  C277  1  0.92004506  0.21520969  0.26451511  1
  Zn  Zn278  1  0.96088763  0.31945772  0.49510728  1
  C  C279  1  0.50659049  0.41974380  0.37103334  1
  C  C280  1  0.50113010  0.45751437  0.32361212  1
  H  H281  1  0.53132119  0.47732211  0.39945561  1
  C  C282  1  0.97682307  0.43548760  0.28952349  1
  C  C283  1  0.73554370  0.00684818  0.27947082  1
  C  C284  1  0.94748041  0.34471958  0.25506943  1
  H  H285  1  0.98861636  0.44361528  0.36196883  1
  H  H286  1  0.58878391  0.00885878  0.30733506  1
  C  C287  1  0.72464540  0.18716502  0.63793319  1
  C  C288  1  0.73960964  0.15047869  0.68381049  1
  H  H289  1  0.88414589  0.34819884  0.61054419  1
  C  C290  1  0.94267894  0.03763053  0.61438442  1
  C  C291  1  0.67041763  0.35813783  0.70741592  1
  C  C292  1  0.67892802  0.30084007  0.62586162  1
  C  C293  1  0.99191723  0.11348353  0.64722339  1
  O  O294  1  0.69327845  0.25766620  0.54296382  1
  C  C295  1  0.65609969  0.38664168  0.66000180  1
  C  C296  1  0.88694874  0.40143810  0.68285110  1
  C  C297  1  0.65668108  0.31928209  0.57515147  1
  C  C298  1  0.94583000  0.07010131  0.56370221  1
  C  C299  1  0.97833486  0.09801036  0.69561955  1
  H  H300  1  0.78758396  0.07438317  0.69226664  1
  O  O301  1  0.60661295  0.40824626  0.56568203  1
  C  C302  1  0.71333897  0.23766864  0.72072322  1
  H  H303  1  0.75532952  0.12725236  0.60870546  1
  H  H304  1  0.85339515  0.31279522  0.69484445  1
  H  H305  1  0.57802990  0.01956928  0.66822532  1
  H  H306  1  0.83434796  0.17945009  0.50711885  1
  C  C307  1  0.91262486  0.41912952  0.63567831  1
  O  O308  1  0.92958074  0.46909743  0.54455104  1
  H  H309  1  0.50248534  0.25274025  0.66619970  1
  N  N310  1  0.65037501  0.41644912  0.74981908  1
  O  O311  1  0.99918960  0.15376159  0.54842866  1
  H  H312  1  0.62149643  0.47644806  0.65022024  1
  N  N313  1  0.99577123  0.17483678  0.73456430  1
  O  O314  1  0.97272024  0.22595769  0.90924169  1
  C  C315  1  0.72206646  0.29210406  0.86412723  1
  C  C316  1  0.68568503  0.35357895  0.78786160  1
  O  O317  1  0.75350185  0.24249781  0.94106112  1
  C  C318  1  0.97464146  0.15972209  0.82154424  1
  C  C319  1  0.75661089  0.17390542  0.84965301  1
  H  H320  1  0.84873559  0.34610094  0.79494782  1
  C  C321  1  0.73023555  0.23801763  0.77058123  1
  H  H322  1  0.87245056  0.41570515  0.87714950  1
  C  C323  1  0.68751422  0.38879919  0.83606510  1
  H  H324  1  0.78318861  0.10523648  0.87531619  1
  Zn  Zn325  1  0.84817206  0.19174889  0.99028956  1
  H  H326  1  0.79117265  0.05393183  0.79004197  1
  C  C327  1  0.94686511  0.06703024  0.85469812  1
  C  C328  1  0.75928771  0.14197998  0.80283552  1
  O  O329  1  0.69455500  0.43130864  0.92924048  1
  O  O330  1  0.92316374  0.05039947  0.93995876  1
  H  H331  1  0.54317514  0.27487419  0.76912724  1
  C  C332  1  0.72429672  0.32550951  0.91454132  1
  C  C333  1  0.88561369  0.43543496  0.80059625  1
  C  C334  1  0.94466624  0.11506495  0.90411304  1
  C  C335  1  0.96525767  0.11482800  0.77655146  1
  H  H336  1  0.57337646  0.01734281  0.76504989  1
  H  H337  1  0.51757200  0.26226393  0.85768274  1
  C  C338  1  0.90181435  0.47008145  0.84645948  1
  H  H339  1  0.62511907  0.00130427  0.84876086  1
  H  H340  1  0.66262682  0.48236762  0.85030213  1
  C  C341  1  0.92898840  0.76876141  0.21616103  1
  O  O342  1  0.67923308  0.71857447  0.04572482  1
  Zn  Zn343  1  0.52342584  0.73283317  0.01676801  1
  H  H344  1  0.55476610  0.53133875  0.05385904  1
  H  H345  1  0.88686633  0.71873245  0.09956926  1
  H  H346  1  0.79549569  0.89580599  0.14048741  1
  H  H347  1  0.64424088  0.75263318  0.12950665  1
  C  C348  1  0.53000738  0.92590414  0.20175355  1
  C  C349  1  0.67891832  0.66530906  0.14033015  1
  C  C350  1  0.87954656  0.72124185  0.17680615  1
  C  C351  1  0.91484018  0.75732437  0.13354865  1
  H  H352  1  0.81854557  0.66215808  0.17832040  1
  H  H353  1  0.54197952  0.95866046  0.12959136  1
  C  C354  1  0.72006538  0.58821338  0.10808823  1
  C  C355  1  0.76016752  0.98136967  0.15109055  1
  C  C356  1  0.67310759  0.62193089  0.18623402  1
  C  C357  1  0.72684757  0.62982167  0.05814724  1
  O  O358  1  0.50561076  0.54967547  0.03640736  1
  O  O359  1  0.78320914  0.96045674  0.05804532  1
  N  N360  1  0.63750884  0.66533209  0.22898427  1
  O  O361  1  0.77533644  0.56849028  0.03215873  1
  H  H362  1  0.61442875  0.75864396  0.22768885  1
  C  C363  1  0.98950512  0.83347513  0.12946375  1
  N  N364  1  0.76076396  0.93280613  0.23914386  1
  O  O365  1  0.97743944  0.80219272  0.04657643  1
  H  H366  1  0.85951090  0.74961916  0.01015629  1
  C  C367  1  0.50610359  0.90276612  0.15709772  1
  H  H368  1  0.81892153  0.88279054  0.23975955  1
  H  H369  1  0.54374937  0.54883270  0.21741746  1
  C  C370  1  0.72081547  0.50224730  0.19636021  1
  H  H371  1  0.58647724  0.98999130  0.20699531  1
  C  C372  1  0.97503341  0.83750435  0.29094228  1
  C  C373  1  0.97559419  0.84971003  0.33938050  1
  O  O374  1  0.85339809  0.69538128  0.43366480  1
  H  H375  1  0.62922050  0.68804476  0.32956307  1
  H  H376  1  0.56002343  0.96961756  0.39519970  1
  H  H377  1  0.82017376  0.59323123  0.27545149  1
  C  C378  1  0.66476377  0.57953128  0.26629346  1
  C  C379  1  0.54289536  0.93943748  0.32041962  1
  Zn  Zn380  1  0.72443774  0.75634579  0.44737537  1
  H  H381  1  0.82509307  0.60973859  0.36101938  1
  C  C382  1  0.86578769  0.67707374  0.34006377  1
  O  O383  1  0.77193223  0.95658517  0.42349673  1
  C  C384  1  0.66215057  0.60257289  0.31403627  1
  C  C385  1  0.86482910  0.66252435  0.29189659  1
  C  C386  1  0.74671742  0.97701539  0.32618408  1
  C  C387  1  0.92328810  0.73927950  0.26592813  1
  C  C388  1  0.92047065  0.76651157  0.36254780  1
  H  H389  1  0.77663077  0.88465261  0.33709357  1
  O  O390  1  0.96090346  0.82858854  0.44139826  1
  C  C391  1  0.69503617  0.51767634  0.39390733  1
  O  O392  1  0.65922884  0.61484290  0.41391302  1
  C  C393  1  0.91164798  0.76256331  0.41507892  1
  H  H394  1  0.51333225  0.55764155  0.31406187  1
  C  C395  1  0.52574296  0.91749797  0.36715712  1
  C  C396  1  0.70274433  0.50928087  0.34283892  1
  C  C397  1  0.63266420  0.91081809  0.60925657  1
  C  C398  1  0.96942475  0.60612150  0.69593184  1
  C  C399  1  0.70440970  0.77279387  0.54533646  1
  H  H400  1  0.75563995  0.57946447  0.71478289  1
  C  C401  1  0.69474148  0.74077775  0.67724414  1
  H  H402  1  0.74574213  0.62595296  0.61956495  1
  C  C403  1  0.68249208  0.80200832  0.59500011  1
  C  C404  1  0.88535135  0.94130892  0.62754319  1
  C  C405  1  0.64545171  0.84759681  0.74241072  1
  H  H406  1  0.84474928  0.89155618  0.60198353  1
  O  O407  1  0.75097735  0.68451070  0.53336316  1
  C  C408  1  0.61235438  0.93415296  0.65562428  1
  C  C409  1  0.96517895  0.52251859  0.62072681  1
  H  H410  1  0.83302861  0.84293046  0.68831102  1
  C  C411  1  0.64537531  0.85403826  0.69115970  1
  O  O412  1  0.90244418  0.99880800  0.53713761  1
  C  C413  1  0.71178306  0.71394257  0.62967557  1
  O  O414  1  0.67429334  0.84759811  0.51199238  1
  C  C415  1  0.87999581  0.91653068  0.67538726  1
  N  N416  1  0.72115717  0.66658193  0.71615033  1
  C  C417  1  0.97724584  0.54038365  0.56958520  1
  C  C418  1  0.91606882  0.50148640  0.71412707  1
  C  C419  1  0.92658392  0.98469152  0.71023611  1
  H  H420  1  0.61264210  0.97276156  0.57887601  1
  H  H421  1  0.50957126  0.73226043  0.66273753  1
  N  N422  1  0.99567470  0.69111135  0.73422223  1
  C  C423  1  0.61711038  0.94144264  0.77630763  1
  C  C424  1  0.71820107  0.71880632  0.80373990  1
  H  H425  1  0.52559157  0.77094440  0.75976358  1
  N  N426  1  0.50731476  0.67745835  0.76203690  1
  H  H427  1  0.57501398  0.89123576  0.96061172  1
  C  C428  1  0.90780073  0.94918607  0.84289796  1
  H  H429  1  0.88217054  0.89385974  0.87244579  1
  O  O430  1  0.84201113  0.78376714  0.98032929  1
  C  C431  1  0.96627566  0.61078997  0.90663706  1
  C  C432  1  0.69011966  0.82193252  0.83429597  1
  C  C433  1  0.94981997  0.58323330  0.85639157  1
  C  C434  1  0.71915164  0.79952827  0.88296599  1
  O  O435  1  0.76172293  0.69863360  0.89340550  1
  C  C436  1  0.96182068  0.63840143  0.77614894  1
  H  H437  1  0.76473297  0.64150452  0.81756273  1
  C  C438  1  0.64215011  0.93104278  0.82221554  1
  C  C439  1  0.90033207  0.90701191  0.79756252  1
  H  H440  1  0.87716910  0.80942378  0.78848968  1
  O  O441  1  0.93907063  0.53512387  0.93965471  1
  O  O442  1  0.70274934  0.88760784  0.91035221  1
  Zn  Zn443  1  0.77915922  0.59350697  0.95433419  1
  Zn  Zn444  1  0.72678497  0.88663302  0.98759781  1
  C  C445  1  0.98090902  0.66848704  0.82237880  1
  C  C446  1  0.91764584  0.51662450  0.76475333  1
  Zn  Zn447  1  0.96613507  0.84894707  0.97223139  1
  C  C448  1  0.92982092  0.98998568  0.76153794  1
  O  O449  1  0.59702119  0.87745004  0.99037343  1
  H  H450  1  0.62305580  0.50830355  0.75357936  1
  C  C451  1  0.69515787  0.73588610  0.75817789  1
