# generated using pymatgen
data_Zn3H16(C2O)16
_symmetry_space_group_name_H-M   'P 1'
_cell_length_a   12.10045464
_cell_length_b   18.41508985
_cell_length_c   18.00589287
_cell_angle_alpha   90.00000000
_cell_angle_beta   90.00000000
_cell_angle_gamma   90.00000000
_symmetry_Int_Tables_number   1
_chemical_formula_structural   Zn3H16(C2O)16
_chemical_formula_sum   'Zn12 H64 C128 O64'
_cell_volume   4012.27038311
_cell_formula_units_Z   4
loop_
 _symmetry_equiv_pos_site_id
 _symmetry_equiv_pos_as_xyz
  1  'x, y, z'
loop_
 _atom_site_type_symbol
 _atom_site_label
 _atom_site_symmetry_multiplicity
 _atom_site_fract_x
 _atom_site_fract_y
 _atom_site_fract_z
 _atom_site_occupancy
  C  C0  1  0.18637740  0.26507605  0.16608098  1
  C  C1  1  0.15127762  0.33578410  0.11956446  1
  C  C2  1  0.22537206  0.39287334  0.12201484  1
  C  C3  1  0.45897589  0.45139538  0.20580701  1
  O  O4  1  0.14149395  0.20903670  0.14903808  1
  H  H5  1  0.43678853  0.17880776  0.04558044  1
  H  H6  1  0.30008138  0.38998218  0.15877695  1
  O  O7  1  0.25133087  0.27502048  0.21616679  1
  C  C8  1  0.20730323  0.45338609  0.07408316  1
  C  C9  1  0.06820024  0.33385149  0.06701561  1
  C  C10  1  0.34305835  0.01264132  0.22008161  1
  H  H11  1  0.02371198  0.28652607  0.05506044  1
  C  C12  1  0.11823486  0.45087075  0.02290453  1
  C  C13  1  0.04313794  0.39271802  0.01939085  1
  H  H14  1  0.26463831  0.04733419  0.21806882  1
  C  C15  1  0.48775821  0.49246343  0.14389218  1
  C  C16  1  0.48627370  0.37705229  0.21933167  1
  H  H17  1  0.26468788  0.49918056  0.07666036  1
  H  H18  1  0.23881570  0.21377869  0.00855968  1
  C  C19  1  0.41693401  0.23010870  0.01586376  1
  H  H20  1  0.08448148  0.36550816  0.44057095  1
  H  H21  1  0.18179964  0.26708385  0.36713512  1
  C  C22  1  0.16514360  0.26202568  0.42852102  1
  O  O23  1  0.34915249  0.45321833  0.32152835  1
  C  C24  1  0.37138351  0.07097804  0.34437547  1
  O  O25  1  0.28319350  0.09987398  0.34538259  1
  C  C26  1  0.38867443  0.48587229  0.26928435  1
  H  H27  1  0.25139066  0.15535604  0.43443820  1
  C  C28  1  0.21057577  0.20407336  0.46793434  1
  C  C29  1  0.41017669  0.01939515  0.28521591  1
  C  C30  1  0.12240031  0.32046286  0.46803751  1
  H  H31  1  0.45919160  0.34940917  0.27236395  1
  O  O32  1  0.44590324  0.07889301  0.39459699  1
  H  H33  1  0.06400177  0.49003039  0.25222053  1
  C  C34  1  0.12208745  0.31973564  0.54626824  1
  H  H35  1  0.18094086  0.25782885  0.64768079  1
  O  O36  1  0.06067861  0.44148753  0.56261229  1
  O  O37  1  0.08439266  0.37740621  0.66228565  1
  C  C38  1  0.08460954  0.38118820  0.59288222  1
  O  O39  1  0.30994861  0.47129291  0.69517464  1
  C  C40  1  0.35753580  0.46539625  0.63390394  1
  C  C41  1  0.25562382  0.13569587  0.58556132  1
  O  O42  1  0.24162365  0.12046144  0.64938734  1
  C  C43  1  0.20914424  0.20438715  0.54399762  1
  Zn  Zn44  1  0.46473118  0.11212062  0.50647228  1
  O  O45  1  0.30176707  0.09269133  0.53953464  1
  C  C46  1  0.16879643  0.26114986  0.58637722  1
  C  C47  1  0.46816074  0.43722043  0.63039261  1
  O  O48  1  0.31078528  0.48548620  0.57628249  1
  H  H49  1  0.47321758  0.42378481  0.74897402  1
  Zn  Zn50  1  0.20945557  0.39135733  0.74971127  1
  H  H51  1  0.05832462  0.01643249  0.73926656  1
  H  H52  1  0.16585832  0.00477867  0.62112605  1
  C  C53  1  0.01599827  0.00410871  0.68850091  1
  H  H54  1  0.03696435  0.17979475  0.60764648  1
  H  H55  1  0.48335467  0.45430790  0.50935889  1
  O  O56  1  0.42450889  0.46128093  0.87731401  1
  C  C57  1  0.09667100  0.06581887  0.87457774  1
  O  O58  1  0.28575982  0.26820934  0.76931538  1
  O  O59  1  0.12643645  0.28949986  0.80693759  1
  C  C60  1  0.28605519  0.31119837  0.95808586  1
  C  C61  1  0.20383128  0.24750407  0.80582369  1
  C  C62  1  0.29136550  0.06156342  0.86072593  1
  C  C63  1  0.34737861  0.41884304  0.89168470  1
  O  O64  1  0.49201753  0.05913355  0.85874471  1
  C  C65  1  0.37836262  0.35497850  0.93766564  1
  C  C66  1  0.30262829  0.13331127  0.84002624  1
  C  C67  1  0.19920822  0.16738445  0.83260767  1
  O  O68  1  0.25425338  0.42181218  0.86504742  1
  C  C69  1  0.09488160  0.14011106  0.85409484  1
  H  H70  1  0.38126564  0.15822670  0.82326921  1
  C  C71  1  0.19615011  0.02400892  0.87960764  1
  H  H72  1  0.19756529  0.32599605  0.94522416  1
  C  C73  1  0.48801692  0.33908565  0.95240292  1
  H  H74  1  0.01797181  0.03726583  0.88844413  1
  C  C75  1  0.40279473  0.02250542  0.86740119  1
  C  C76  1  0.30853269  0.24999946  0.99616537  1
  H  H77  1  0.01665664  0.17112345  0.85062903  1
  H  H78  1  0.10301831  0.49803523  0.98774415  1
  H  H79  1  0.18282385  0.65591837  0.17957321  1
  H  H80  1  0.02889861  0.74744159  0.17441383  1
  H  H81  1  0.30502530  0.82627920  0.18154374  1
  C  C82  1  0.41089160  0.75880797  0.11184517  1
  H  H83  1  0.33223667  0.96376775  0.10674642  1
  C  C84  1  0.15724558  0.67969463  0.12468262  1
  H  H85  1  0.19989864  0.87966255  0.06983747  1
  C  C86  1  0.27526982  0.84713445  0.06219513  1
  C  C87  1  0.32207680  0.81155167  0.12253482  1
  C  C88  1  0.47382352  0.72700050  0.17496507  1
  C  C89  1  0.03292087  0.74932250  0.05400444  1
  C  C90  1  0.21155487  0.65521537  0.06148339  1
  C  C91  1  0.07087467  0.72894807  0.12314432  1
  H  H92  1  0.45505292  0.54921250  0.13293363  1
  C  C93  1  0.44804267  0.73993346  0.03908354  1
  H  H94  1  0.28543529  0.61990959  0.06391842  1
  O  O95  1  0.43600893  0.72900454  0.24069051  1
  C  C96  1  0.37880974  0.97158234  0.16000240  1
  C  C97  1  0.47674886  0.93172963  0.16587525  1
  C  C98  1  0.15594966  0.56339812  0.31997155  1
  H  H99  1  0.32467248  0.89561903  0.42052597  1
  O  O100  1  0.33951467  0.62441155  0.40291025  1
  C  C101  1  0.15773770  0.63218148  0.35182564  1
  C  C102  1  0.25194666  0.65754830  0.40073541  1
  C  C103  1  0.06793006  0.67954922  0.33679196  1
  C  C104  1  0.06389802  0.54129924  0.27690020  1
  H  H105  1  0.07673672  0.73650719  0.35070372  1
  H  H106  1  0.22184935  0.52355779  0.33309853  1
  O  O107  1  0.22941297  0.71495468  0.43720310  1
  Zn  Zn108  1  0.46995669  0.64551161  0.31657743  1
  O  O109  1  0.37118557  0.55118615  0.26003581  1
  C  C110  1  0.32210630  0.90154034  0.48015728  1
  H  H111  1  0.46569444  0.97646220  0.47535006  1
  H  H112  1  0.37918871  0.70923409  0.49385966  1
  H  H113  1  0.17699517  0.82886521  0.49407749  1
  C  C114  1  0.07158400  0.99732136  0.62224055  1
  H  H115  1  0.34195596  0.90439690  0.69296268  1
  O  O116  1  0.24069461  0.65079729  0.58736554  1
  C  C117  1  0.40611870  0.94864322  0.58660653  1
  O  O118  1  0.09717781  0.79031269  0.61671062  1
  C  C119  1  0.33705673  0.90555620  0.62997900  1
  C  C120  1  0.41931370  0.70049386  0.61398238  1
  C  C121  1  0.17414220  0.82608605  0.64476983  1
  C  C122  1  0.24110221  0.86174804  0.51964373  1
  C  C123  1  0.44027324  0.71528734  0.54091966  1
  C  C124  1  0.25334799  0.86775939  0.59440747  1
  Zn  Zn125  1  0.15748652  0.54277967  0.58760504  1
  Zn  Zn126  1  0.11020818  0.70589685  0.53005116  1
  O  O127  1  0.29650439  0.65772962  0.70404813  1
  C  C128  1  0.31288325  0.66789759  0.63549447  1
  O  O129  1  0.19675071  0.82575070  0.71113771  1
  O  O130  1  0.00857952  0.59339156  0.63110125  1
  C  C131  1  0.40134018  0.94772925  0.50880575  1
  H  H132  1  0.47268976  0.70207055  0.72867731  1
  C  C133  1  0.02035032  0.97108722  0.55812787  1
  O  O134  1  0.49266808  0.99264363  0.69565271  1
  C  C135  1  0.49945407  0.98926603  0.62645794  1
  C  C136  1  0.49528403  0.71606204  0.67286862  1
  H  H137  1  0.06819647  0.96222826  0.50598756  1
  O  O138  1  0.18549283  0.67857697  0.86416022  1
  O  O139  1  0.40454220  0.78162971  0.84616966  1
  C  C140  1  0.22196878  0.65139355  0.92228474  1
  O  O141  1  0.29164424  0.60097940  0.92944074  1
  Zn  Zn142  1  0.26369538  0.74073931  0.78355355  1
  C  C143  1  0.43544499  0.75221974  0.90592777  1
  Zn  Zn144  1  0.46271181  0.57940746  0.91006584  1
  H  H145  1  0.28928339  0.86737957  0.94506204  1
  H  H146  1  0.20294522  0.96462862  0.89535615  1
  H  H147  1  0.03835780  0.73909781  0.93621262  1
  C  C148  1  0.39458384  0.77690520  0.97959284  1
  O  O149  1  0.41414347  0.96088020  0.89098533  1
  C  C150  1  0.17166501  0.67802677  0.99343397  1
  C  C151  1  0.31742903  0.83312729  0.99085403  1
  C  C152  1  0.08402833  0.72649314  0.98963790  1
  H  H153  1  0.58907826  0.29092074  0.17578787  1
  H  H154  1  0.89348646  0.37988807  0.18232850  1
  H  H155  1  0.66258679  0.36423838  0.06926826  1
  C  C156  1  0.60310536  0.38929989  0.11171408  1
  C  C157  1  0.55687354  0.45478294  0.09308851  1
  H  H158  1  0.88790415  0.46968283  0.08288627  1
  C  C159  1  0.84198596  0.48196200  0.13384128  1
  C  C160  1  0.84588524  0.43152109  0.19099452  1
  C  C161  1  0.59545522  0.49360305  0.02271296  1
  C  C162  1  0.56209939  0.34912484  0.17120662  1
  C  C163  1  0.61637889  0.24211074  0.01576717  1
  O  O164  1  0.62059369  0.18356215  0.04219765  1
  O  O165  1  0.71830550  0.18903786  0.44234220  1
  H  H166  1  0.78420516  0.40665955  0.30808817  1
  H  H167  1  0.57423494  0.00128044  0.33516272  1
  O  O168  1  0.65972932  0.47535641  0.37786266  1
  C  C169  1  0.78856622  0.44408500  0.25800035  1
  C  C170  1  0.87505243  0.18453441  0.55882401  1
  H  H171  1  0.75928463  0.35380404  0.61170199  1
  C  C172  1  0.76208449  0.18615075  0.56956769  1
  O  O173  1  0.55555157  0.02795653  0.58710125  1
  C  C174  1  0.79331586  0.17150925  0.70023420  1
  C  C175  1  0.62652254  0.39140168  0.68908132  1
  C  C176  1  0.71906223  0.17693312  0.63967647  1
  C  C177  1  0.94986115  0.17837962  0.62050139  1
  C  C178  1  0.63453453  0.41201637  0.55368201  1
  C  C179  1  0.90405265  0.17470300  0.69302496  1
  H  H180  1  0.62631786  0.16989404  0.64902073  1
  C  C181  1  0.68105737  0.38485782  0.61986638  1
  C  C182  1  0.52581796  0.43679694  0.56287906  1
  C  C183  1  0.52195970  0.41824826  0.69834329  1
  O  O184  1  0.57563974  0.19130732  0.51626370  1
  H  H185  1  0.95684959  0.17760700  0.74459917  1
  H  H186  1  0.68011002  0.41500425  0.50244177  1
  O  O187  1  0.79010605  0.33865081  0.73562006  1
  H  H188  1  0.90654568  0.18847616  0.50116255  1
  C  C189  1  0.68094210  0.18650530  0.50265640  1
  O  O190  1  0.79261861  0.18518891  0.83551275  1
  H  H191  1  0.55746806  0.37867846  0.93235552  1
  O  O192  1  0.90405104  0.01011484  0.81773920  1
  Zn  Zn193  1  0.78034265  0.29002645  0.88292054  1
  O  O194  1  0.93581491  0.44718976  0.91936158  1
  O  O195  1  0.65980080  0.35134555  0.81745593  1
  O  O196  1  0.69635444  0.27935977  0.98848603  1
  O  O197  1  0.90754059  0.33375751  0.95222325  1
  Zn  Zn198  1  0.60912364  0.02999119  0.78073968  1
  C  C199  1  0.95924193  0.39193930  0.95844670  1
  O  O200  1  0.64327162  0.15118916  0.77834973  1
  O  O201  1  0.66851243  0.46723836  0.98362642  1
  C  C202  1  0.50298370  0.27558742  0.99449827  1
  C  C203  1  0.69593635  0.35861717  0.75109371  1
  C  C204  1  0.74331299  0.16661616  0.77823016  1
  O  O205  1  0.67019948  0.86506395  0.17714265  1
  O  O206  1  0.85486365  0.58405334  0.02731512  1
  C  C207  1  0.78842801  0.54933577  0.14394205  1
  H  H208  1  0.68118595  0.60957187  0.22303204  1
  O  O209  1  0.74508610  0.66175139  0.08153957  1
  O  O210  1  0.88321866  0.81466731  0.11238562  1
  Zn  Zn211  1  0.72947011  0.75745093  0.15289531  1
  C  C212  1  0.64952227  0.90204143  0.23290230  1
  C  C213  1  0.54142918  0.94340063  0.23141153  1
  C  C214  1  0.79206899  0.60096399  0.08139408  1
  O  O215  1  0.56714155  0.70324834  0.16611146  1
  H  H216  1  0.50799414  0.69685464  0.02662102  1
  C  C217  1  0.73064974  0.56239768  0.21099466  1
  C  C218  1  0.93055081  0.79979518  0.05224044  1
  H  H219  1  0.90552195  0.57300152  0.22677486  1
  H  H220  1  0.51108579  0.89931072  0.11772111  1
  O  O221  1  0.55177675  0.55491707  0.00819134  1
  O  O222  1  0.67913675  0.74709439  0.42610242  1
  O  O223  1  0.61614289  0.58595740  0.34163381  1
  C  C224  1  0.66380501  0.52291519  0.33327153  1
  C  C225  1  0.57705534  0.74310484  0.44157619  1
  O  O226  1  0.50788418  0.74137584  0.39202430  1
  C  C227  1  0.51367440  0.98796406  0.29098433  1
  C  C228  1  0.97828417  0.65686570  0.29531099  1
  Zn  Zn229  1  0.77507425  0.83294031  0.37656989  1
  O  O230  1  0.90339991  0.76993404  0.33173794  1
  C  C231  1  0.88699676  0.71390259  0.29316213  1
  O  O232  1  0.71114206  0.91072347  0.28806506  1
  C  C233  1  0.97642888  0.58941808  0.26284022  1
  C  C234  1  0.85253986  0.91381528  0.49672925  1
  O  O235  1  0.90384142  0.90932713  0.43782267  1
  H  H236  1  0.74663863  0.60402658  0.48845704  1
  O  O237  1  0.80577260  0.71085854  0.25086714  1
  C  C238  1  0.73032773  0.50710787  0.26411355  1
  C  C239  1  0.81075428  0.59975546  0.60610430  1
  C  C240  1  0.59459289  0.74988549  0.65278193  1
  C  C241  1  0.90418169  0.98328480  0.68701455  1
  C  C242  1  0.59853256  0.58012633  0.65606194  1
  C  C243  1  0.90914831  0.95103068  0.56441637  1
  H  H244  1  0.65149483  0.75968351  0.69588808  1
  H  H245  1  0.55185870  0.59108829  0.54225380  1
  C  C246  1  0.84391417  0.95583822  0.62679155  1
  C  C247  1  0.93079835  0.60902149  0.58446216  1
  C  C248  1  0.54932355  0.73669809  0.52366351  1
  C  C249  1  0.62408724  0.75792694  0.57901219  1
  C  C250  1  0.72824977  0.59678803  0.55155401  1
  C  C251  1  0.79150617  0.59065805  0.68231973  1
  C  C252  1  0.62301062  0.58902729  0.58153988  1
  C  C253  1  0.68259113  0.58814719  0.70799111  1
  H  H254  1  0.70381872  0.78337943  0.56581332  1
  H  H255  1  0.75772462  0.93447349  0.63673389  1
  H  H256  1  0.86397498  0.58902740  0.71774751  1
  O  O257  1  0.96171339  0.63547927  0.52224885  1
  H  H258  1  0.51021775  0.57362238  0.67509943  1
  O  O259  1  0.75923776  0.88473447  0.50058395  1
  O  O260  1  0.55393378  0.58554271  0.80109902  1
  O  O261  1  0.73569596  0.57201788  0.83164587  1
  C  C262  1  0.65609654  0.58239594  0.78813649  1
  C  C263  1  0.85165564  0.99410554  0.76293482  1
  Zn  Zn264  1  0.79183355  0.53109607  0.93132987  1
  O  O265  1  0.74889288  0.97659745  0.76931988  1
  O  O266  1  0.50560873  0.70222279  0.91110669  1
  O  O267  1  0.89613260  0.82116331  0.99275162  1
