# generated using pymatgen
data_Zn4H96C150O19
_symmetry_space_group_name_H-M   'P 1'
_cell_length_a   18.77887885
_cell_length_b   15.85011360
_cell_length_c   17.83438939
_cell_angle_alpha   90.00000000
_cell_angle_beta   90.00000000
_cell_angle_gamma   90.00000000
_symmetry_Int_Tables_number   1
_chemical_formula_structural   Zn4H96C150O19
_chemical_formula_sum   'Zn8 H192 C300 O38'
_cell_volume   5308.35897130
_cell_formula_units_Z   2
loop_
 _symmetry_equiv_pos_site_id
 _symmetry_equiv_pos_as_xyz
  1  'x, y, z'
loop_
 _atom_site_type_symbol
 _atom_site_label
 _atom_site_symmetry_multiplicity
 _atom_site_fract_x
 _atom_site_fract_y
 _atom_site_fract_z
 _atom_site_occupancy
  C  C0  1  0.34286646  0.11294325  0.20783601  1
  H  H1  1  0.15676467  0.17746970  0.04877694  1
  H  H2  1  0.38976993  0.19996841  0.05187420  1
  H  H3  1  0.11684724  0.22352144  0.15528024  1
  O  O4  1  0.39075130  0.14900350  0.08460577  1
  C  C5  1  0.44918031  0.44677044  0.02950221  1
  C  C6  1  0.35919431  0.33971388  0.01444776  1
  H  H7  1  0.32629913  0.37080510  0.05852507  1
  C  C8  1  0.06986489  0.42203765  0.11496991  1
  O  O9  1  0.42967623  0.37331233  0.05155684  1
  C  C10  1  0.11125935  0.35109040  0.13528115  1
  C  C11  1  0.21126284  0.05927735  0.06092721  1
  H  H12  1  0.16234033  0.36392729  0.16064521  1
  Zn  Zn13  1  0.11058792  0.04717146  0.10665885  1
  C  C14  1  0.19863353  0.13656093  0.02221828  1
  H  H15  1  0.26944980  0.05201785  0.07450419  1
  C  C16  1  0.08101252  0.26975871  0.13509338  1
  O  O17  1  0.30697112  0.23872399  0.13803813  1
  H  H18  1  0.43500199  0.05589275  0.15143809  1
  C  C19  1  0.39810822  0.04889923  0.19995814  1
  C  C20  1  0.34184065  0.17688719  0.14353508  1
  C  C21  1  0.00021639  0.40713428  0.08493670  1
  C  C22  1  0.01059762  0.25774870  0.11099438  1
  O  O23  1  0.01938064  0.11393985  0.15215102  1
  H  H24  1  0.29216131  0.49310748  0.19751020  1
  H  H25  1  0.42278888  0.49794923  0.18822097  1
  H  H26  1  0.17847292  0.03758871  0.29127643  1
  C  C27  1  0.37871740  0.28795931  0.40383311  1
  H  H28  1  0.26606730  0.06202214  0.37806844  1
  C  C29  1  0.10809188  0.15036256  0.37080881  1
  C  C30  1  0.09955861  0.05514957  0.38414270  1
  H  H31  1  0.12510307  0.03291279  0.43441759  1
  C  C32  1  0.30257247  0.05432278  0.32701703  1
  C  C33  1  0.07003707  0.19766732  0.31511944  1
  C  C34  1  0.46418328  0.17080120  0.42077194  1
  H  H35  1  0.25491602  0.15989899  0.27884942  1
  H  H36  1  0.24309121  0.28741689  0.40779803  1
  C  C37  1  0.17358738  0.39339759  0.29937568  1
  H  H38  1  0.04462484  0.04093730  0.38844306  1
  H  H39  1  0.20353667  0.14840352  0.44687028  1
  C  C40  1  0.15293854  0.31230207  0.33098967  1
  C  C41  1  0.16822462  0.18588215  0.40789735  1
  C  C42  1  0.37642706  0.45997703  0.40297665  1
  H  H43  1  0.02722612  0.23028746  0.49546866  1
  C  C44  1  0.19401894  0.26453862  0.38497745  1
  C  C45  1  0.34428439  0.41491328  0.34389184  1
  C  C46  1  0.08937911  0.27999862  0.29474031  1
  C  C47  1  0.38354544  0.19132511  0.40559743  1
  C  C48  1  0.02600095  0.48468475  0.38429553  1
  H  H49  1  0.36651699  0.16069318  0.34969751  1
  H  H50  1  0.48007507  0.10352022  0.31795891  1
  H  H51  1  0.25245701  0.44559496  0.46158669  1
  H  H52  1  0.30566995  0.29140500  0.30506101  1
  C  C53  1  0.33744177  0.32662329  0.34583330  1
  H  H54  1  0.02343290  0.16307136  0.29104883  1
  O  O55  1  0.18941924  0.45791247  0.27385684  1
  C  C56  1  0.41153892  0.33029938  0.46402230  1
  C  C57  1  0.40950973  0.41993143  0.46357574  1
  O  O58  1  0.04694623  0.46421126  0.45283817  1
  C  C59  1  0.05024184  0.36769967  0.47735767  1
  C  C60  1  0.29636496  0.11245085  0.26838006  1
  C  C61  1  0.01338793  0.29419367  0.47096780  1
  H  H62  1  0.09137708  0.00049979  0.27059875  1
  C  C63  1  0.35115056  0.15348858  0.48202111  1
  C  C64  1  0.49485873  0.21142097  0.48409424  1
  O  O65  1  0.01517307  0.43030965  0.33691030  1
  H  H66  1  0.32211783  0.44644530  0.29254992  1
  C  C67  1  0.13096369  0.00464983  0.31584919  1
  O  O68  1  0.26171846  0.02772541  0.49989899  1
  C  C69  1  0.29888436  0.08472505  0.49037367  1
  H  H70  1  0.05721378  0.31991778  0.25717590  1
  C  C71  1  0.11039819  0.29685017  0.69082056  1
  H  H72  1  0.25937781  0.17709339  0.60258943  1
  H  H73  1  0.46149990  0.30236014  0.57929833  1
  C  C74  1  0.01153957  0.19611535  0.64556581  1
  C  C75  1  0.13875391  0.43676151  0.61429591  1
  C  C76  1  0.15308955  0.35264125  0.63365773  1
  C  C77  1  0.08511514  0.21830026  0.64828622  1
  C  C78  1  0.21302531  0.21278165  0.62494288  1
  C  C79  1  0.44092657  0.26990378  0.52854933  1
  C  C80  1  0.24964396  0.33887229  0.53596061  1
  O  O81  1  0.32670313  0.14034855  0.70520267  1
  C  C82  1  0.47282539  0.03816217  0.59915931  1
  C  C83  1  0.21784610  0.22670176  0.71075109  1
  H  H84  1  0.09814238  0.47385851  0.64620883  1
  H  H85  1  0.31135662  0.34123999  0.66941284  1
  H  H86  1  0.47291410  0.09189410  0.55423843  1
  C  C87  1  0.47365263  0.48078121  0.66458405  1
  C  C88  1  0.20659923  0.30522249  0.59380899  1
  H  H89  1  0.06100372  0.32853446  0.71505738  1
  H  H90  1  0.03845022  0.01878453  0.53395133  1
  C  C91  1  0.13894960  0.17480275  0.60648699  1
  H  H92  1  0.28609097  0.29969058  0.50327845  1
  H  H93  1  0.35656893  0.01257825  0.59426921  1
  H  H94  1  0.16619906  0.06504287  0.53463235  1
  H  H95  1  0.29554482  0.47882592  0.60072718  1
  C  C96  1  0.32400305  0.40334782  0.69598901  1
  C  C97  1  0.05195012  0.07441152  0.56747841  1
  C  C98  1  0.12420103  0.09765706  0.56823372  1
  C  C99  1  0.38334468  0.20189912  0.54065474  1
  H  H100  1  0.43302463  0.47261648  0.70725568  1
  C  C101  1  0.17365603  0.46983958  0.55056085  1
  H  H102  1  0.04395718  0.06709048  0.70769351  1
  C  C103  1  0.31233274  0.47862375  0.65769510  1
  H  H104  1  0.43144371  0.45857972  0.51017695  1
  C  C105  1  0.22750097  0.42168458  0.51180525  1
  C  C106  1  0.28433069  0.18562730  0.73602406  1
  H  H107  1  0.09695121  0.36549285  0.51280823  1
  H  H108  1  0.01088129  0.31667063  0.83138409  1
  C  C109  1  0.05234677  0.36472100  0.84732898  1
  C  C110  1  0.04327457  0.16538395  0.91428793  1
  C  C111  1  0.33629852  0.47952817  0.80938216  1
  H  H112  1  0.04714210  0.20676330  0.96475190  1
  H  H113  1  0.15343926  0.47440615  0.85060211  1
  C  C114  1  0.25003631  0.26410471  0.94160586  1
  C  C115  1  0.44820817  0.22039918  0.78537543  1
  H  H116  1  0.34285288  0.03261434  0.78124361  1
  C  C117  1  0.10427814  0.12977363  0.87987228  1
  C  C118  1  0.10741271  0.10785154  0.80287025  1
  C  C119  1  0.05093569  0.44011831  0.79360390  1
  C  C120  1  0.30116204  0.12107453  0.93545724  1
  C  C121  1  0.23309730  0.25147823  0.85805355  1
  H  H122  1  0.15551972  0.12831507  0.91123765  1
  C  C123  1  0.24829456  0.17158258  0.96823797  1
  C  C124  1  0.16805487  0.28566684  0.83098130  1
  H  H125  1  0.33357423  0.43031777  0.92332692  1
  H  H126  1  0.40853544  0.17310722  0.76452070  1
  C  C127  1  0.28321157  0.20321565  0.81879176  1
  H  H128  1  0.04115274  0.38426103  0.90674879  1
  H  H129  1  0.43448683  0.05498082  0.87502955  1
  C  C130  1  0.37098461  0.24682915  0.89716998  1
  H  H131  1  0.31616060  0.05879199  0.95653641  1
  H  H132  1  0.33040376  0.34403858  0.80759902  1
  O  O133  1  0.12360705  0.32397290  0.87599479  1
  C  C134  1  0.33166564  0.29410945  0.95664099  1
  C  C135  1  0.33494704  0.16752152  0.87525617  1
  H  H136  1  0.20960039  0.30289725  0.97222979  1
  C  C137  1  0.43441039  0.26648115  0.85507752  1
  H  H138  1  0.16193419  0.09494724  0.77759265  1
  C  C139  1  0.11442313  0.48934674  0.80102509  1
  C  C140  1  0.32779063  0.40324817  0.77498137  1
  C  C141  1  0.33301389  0.49218420  0.89593587  1
  C  C142  1  0.04348172  0.08845128  0.76552980  1
  H  H143  1  0.20913383  0.46081885  0.99165340  1
  C  C144  1  0.47922204  0.33309499  0.87933645  1
  H  H145  1  0.46507468  0.36998901  0.92818937  1
  C  C146  1  0.16715201  0.27054652  0.75163138  1
  H  H147  1  0.08878215  0.51926319  0.20462917  1
  C  C148  1  0.38552428  0.71420806  0.17472563  1
  C  C149  1  0.09628058  0.50945921  0.13946780  1
  C  C150  1  0.39283982  0.55722519  0.18451942  1
  C  C151  1  0.31803763  0.55508460  0.19338494  1
  C  C152  1  0.04641464  0.86525071  0.01325540  1
  C  C153  1  0.16453676  0.83525831  0.09046845  1
  H  H154  1  0.48424207  0.63400265  0.17029188  1
  C  C155  1  0.31088632  0.70962583  0.18276710  1
  O  O156  1  0.20537154  0.90541084  0.08345249  1
  H  H157  1  0.28654091  0.85259804  0.16536121  1
  O  O158  1  0.05790457  0.58966503  0.11510996  1
  H  H159  1  0.15470690  0.51998522  0.12455947  1
  C  C160  1  0.15534010  0.69000480  0.15020691  1
  C  C161  1  0.19059318  0.76733461  0.13711627  1
  C  C162  1  0.19737058  0.64147969  0.20921124  1
  C  C163  1  0.46567712  0.94468790  0.07679013  1
  C  C164  1  0.42539538  0.63665968  0.17635186  1
  H  H165  1  0.42667928  0.90160264  0.09776992  1
  C  C166  1  0.09058478  0.66297347  0.11478924  1
  C  C167  1  0.06122471  0.73433771  0.07764946  1
  O  O168  1  0.48846415  0.84184704  0.20787176  1
  C  C169  1  0.27830574  0.62978765  0.19414712  1
  H  H170  1  0.40974042  0.77889852  0.17515659  1
  C  C171  1  0.09571018  0.81228199  0.06588504  1
  C  C172  1  0.25971864  0.78765845  0.17925359  1
  H  H173  1  0.17575212  0.57955178  0.22246135  1
  C  C174  1  0.17740893  0.98269485  0.04141435  1
  C  C175  1  0.49492554  0.51543324  0.03003033  1
  H  H176  1  0.36487286  0.83495368  0.00543498  1
  C  C177  1  0.46303527  0.97726223  0.00332243  1
  H  H178  1  0.10674575  0.57457231  0.00868536  1
  H  H179  1  0.48830200  0.66677779  0.02293476  1
  H  H180  1  0.06285463  0.93252850  0.00546823  1
  C  C181  1  0.21244381  0.88034994  0.28717547  1
  C  C182  1  0.18659771  0.65645011  0.35313711  1
  Zn  Zn183  1  0.18784674  0.79321280  0.36761420  1
  C  C184  1  0.19611197  0.67911225  0.43593554  1
  C  C185  1  0.12550205  0.88946309  0.41021186  1
  O  O186  1  0.46604927  0.67971687  0.36491054  1
  C  C187  1  0.20226112  0.70287198  0.28167109  1
  H  H188  1  0.21440177  0.62720276  0.47316783  1
  C  C189  1  0.48063765  0.59318533  0.48109303  1
  H  H190  1  0.41451720  0.70735087  0.44906402  1
  H  H191  1  0.17343537  0.58998021  0.34848150  1
  C  C192  1  0.15593364  0.91679045  0.33941053  1
  C  C193  1  0.20887159  0.76063161  0.47644439  1
  H  H194  1  0.43655235  0.79534226  0.35510353  1
  C  C195  1  0.35951783  0.91114513  0.37194191  1
  H  H196  1  0.07003873  0.91150940  0.42381671  1
  C  C197  1  0.16703421  0.83725259  0.47179437  1
  C  C198  1  0.45436987  0.65459483  0.42783753  1
  C  C199  1  0.01693762  0.57314747  0.36026759  1
  C  C200  1  0.03382467  0.63544956  0.41379458  1
  H  H201  1  0.03922704  0.77405598  0.42940883  1
  H  H202  1  0.31674367  0.87053255  0.35467265  1
  C  C203  1  0.43082375  0.86347684  0.37270815  1
  H  H204  1  0.45055928  0.94446532  0.26317867  1
  C  C205  1  0.48558514  0.91212317  0.39803998  1
  C  C206  1  0.03083851  0.71818220  0.38948440  1
  H  H207  1  0.04709880  0.62199783  0.47341186  1
  C  C208  1  0.22719159  0.79098075  0.26005774  1
  H  H209  1  0.34238477  0.93778895  0.42594763  1
  C  C210  1  0.00732088  0.73133246  0.31352185  1
  H  H211  1  0.48131110  0.98027316  0.41678626  1
  H  H212  1  0.24004821  0.92733999  0.25340954  1
  H  H213  1  0.38305477  0.53246145  0.40713168  1
  H  H214  1  0.04488948  0.86456281  0.28874695  1
  C  C215  1  0.00261292  0.58459977  0.28316540  1
  C  C216  1  0.40869551  0.99477162  0.26229334  1
  C  C217  1  0.35817121  0.99248961  0.32126713  1
  O  O218  1  0.31600756  0.70118712  0.52511987  1
  C  C219  1  0.45685847  0.53512278  0.60875710  1
  H  H220  1  0.16281224  0.53296421  0.53265825  1
  C  C221  1  0.40818152  0.98599242  0.60849623  1
  O  O222  1  0.14479729  0.68392281  0.65564880  1
  H  H223  1  0.40087059  0.63847135  0.55218290  1
  C  C224  1  0.48115754  0.86899037  0.65380084  1
  C  C225  1  0.08615715  0.64322828  0.64889062  1
  O  O226  1  0.07948208  0.88744936  0.61311982  1
  H  H227  1  0.18006298  0.88122276  0.51996245  1
  H  H228  1  0.31297266  0.61636839  0.66231267  1
  C  C229  1  0.44246524  0.58898163  0.54896868  1
  H  H230  1  0.02388545  0.78526839  0.51221504  1
  Zn  Zn231  1  0.16772981  0.81954565  0.65996187  1
  O  O232  1  0.04339120  0.66110913  0.59988638  1
  O  O233  1  0.26708089  0.80199568  0.58914724  1
  C  C234  1  0.06913283  0.57013776  0.69933488  1
  H  H235  1  0.36024106  0.86847029  0.64498674  1
  C  C236  1  0.40856004  0.90766312  0.63922080  1
  C  C237  1  0.26901854  0.75123549  0.53399105  1
  C  C238  1  0.01503375  0.88559618  0.63882529  1
  C  C239  1  0.31497981  0.55815217  0.69380298  1
  C  C240  1  0.00442229  0.52844417  0.69650483  1
  H  H241  1  0.49094067  0.80917665  0.54294615  1
  O  O242  1  0.00039839  0.92094959  0.69792873  1
  O  O243  1  0.24767407  0.94471151  0.71302069  1
  C  C244  1  0.31363507  0.86265647  0.89701256  1
  C  C245  1  0.03025035  0.81781768  0.93857198  1
  H  H246  1  0.21183593  0.75534271  0.86134446  1
  C  C247  1  0.01368375  0.69920787  0.82569871  1
  C  C248  1  0.44367740  0.68965179  0.88011557  1
  C  C249  1  0.15506521  0.58522038  0.97546154  1
  C  C250  1  0.30717629  0.91097810  0.83137665  1
  C  C251  1  0.26230439  0.62872337  0.87627549  1
  C  C252  1  0.36130030  0.87506563  0.95381875  1
  C  C253  1  0.32983202  0.55926202  0.77086431  1
  H  H254  1  0.11713022  0.71417093  0.95673085  1
  C  C255  1  0.05485161  0.84128808  0.86528750  1
  H  H256  1  0.32365012  0.69643984  0.78750483  1
  C  C257  1  0.40978372  0.94352649  0.94757544  1
  C  C258  1  0.26534857  0.54731214  0.91234022  1
  C  C259  1  0.15822915  0.66737883  0.94500274  1
  C  C260  1  0.25033312  0.90369299  0.76986059  1
  C  C261  1  0.34868996  0.98292714  0.82689064  1
  O  O262  1  0.49223623  0.73388568  0.89042061  1
  C  C263  1  0.39184969  0.62606273  0.87518219  1
  O  O264  1  0.20684507  0.84084971  0.77496812  1
  H  H265  1  0.08549798  0.90244206  0.85403518  1
  H  H266  1  0.27415753  0.80900807  0.90041121  1
  C  C267  1  0.32548187  0.63882227  0.82052949  1
  C  C268  1  0.39129022  0.55459237  0.92360728  1
  C  C269  1  0.21046643  0.69107331  0.89112480  1
  C  C270  1  0.04225990  0.78044482  0.80796053  1
  C  C271  1  0.43422849  0.51999386  0.98055567  1
  C  C272  1  0.40087924  0.99703134  0.88153857  1
  H  H273  1  0.16733433  0.96984099  0.97899412  1
  C  C274  1  0.00092758  0.73818673  0.95854278  1
  H  H275  1  0.01036938  0.65208893  0.77977746  1
  C  C276  1  0.20938321  0.52411632  0.96118420  1
  H  H277  1  0.06537486  0.79514506  0.75033536  1
  C  C278  1  0.12364050  0.55580171  0.75294478  1
  H  H279  1  0.17363333  0.59205720  0.75172302  1
  C  C280  1  0.70070606  0.34771361  0.15290624  1
  C  C281  1  0.63108501  0.32717826  0.12637698  1
  C  C282  1  0.77401093  0.16305890  0.22447910  1
  H  H283  1  0.58246727  0.23304883  0.02556980  1
  H  H284  1  0.80227448  0.15476882  0.01407767  1
  H  H285  1  0.91709120  0.31230273  0.06068548  1
  C  C286  1  0.72765679  0.42763101  0.14417955  1
  C  C287  1  0.58846989  0.39065855  0.09463473  1
  H  H288  1  0.90512580  0.20284140  0.07055220  1
  H  H289  1  0.79095914  0.03161197  0.17930222  1
  C  C290  1  0.64766288  0.01616287  0.14762635  1
  H  H291  1  0.53362176  0.37265419  0.07543301  1
  O  O292  1  0.69319995  0.07107896  0.12301352  1
  H  H293  1  0.61479725  0.26122255  0.12786690  1
  O  O294  1  0.92386161  0.14416154  0.08144735  1
  H  H295  1  0.96712616  0.46205329  0.07803255  1
  H  H296  1  0.79307896  0.11019223  0.11006065  1
  C  C297  1  0.98702112  0.16713942  0.11430292  1
  C  C298  1  0.57819976  0.05001018  0.03419177  1
  H  H299  1  0.87918950  0.20834015  0.18951752  1
  C  C300  1  0.76642678  0.09551191  0.16618851  1
  C  C301  1  0.83304200  0.21680890  0.22712478  1
  H  H302  1  0.62014994  0.09035369  0.01453538  1
  H  H303  1  0.73056147  0.02291169  0.01043741  1
  H  H304  1  0.73131964  0.29428418  0.17623401  1
  C  C305  1  0.97043226  0.32608024  0.08122282  1
  H  H306  1  0.78420870  0.44018457  0.16002192  1
  C  C307  1  0.60999716  0.47381137  0.08778449  1
  C  C308  1  0.58274512  0.00977506  0.10353584  1
  C  C309  1  0.68464270  0.49531186  0.11209416  1
  H  H310  1  0.95710448  0.00824754  0.04727925  1
  H  H311  1  0.84323250  0.00007302  0.10997204  1
  H  H312  1  0.55985434  0.34776528  0.42744014  1
  H  H313  1  0.66187912  0.24685632  0.36493144  1
  H  H314  1  0.84954203  0.21786684  0.39491367  1
  C  C315  1  0.55628103  0.46428788  0.36450396  1
  C  C316  1  0.71003380  0.23848628  0.32244679  1
  H  H317  1  0.89134217  0.12106081  0.29897988  1
  Zn  Zn318  1  0.65789196  0.49887411  0.40076644  1
  C  C319  1  0.77593259  0.34973750  0.39290033  1
  C  C320  1  0.91539500  0.02166273  0.38624428  1
  C  C321  1  0.82993175  0.28171797  0.28101614  1
  Zn  Zn322  1  0.93151506  0.34299412  0.42003220  1
  H  H323  1  0.87932914  0.32250490  0.28999152  1
  C  C324  1  0.71019722  0.17774193  0.26891281  1
  C  C325  1  0.61541104  0.44007364  0.49553717  1
  C  C326  1  0.86476958  0.15664198  0.41235740  1
  O  O327  1  0.72390864  0.35729987  0.43193493  1
  H  H328  1  0.66343764  0.14099967  0.25555534  1
  C  C329  1  0.89146051  0.10060996  0.36019946  1
  H  H330  1  0.51174705  0.44245346  0.32827366  1
  C  C331  1  0.57985903  0.10821242  0.38535608  1
  C  C332  1  0.77319627  0.28675501  0.33028323  1
  C  C333  1  0.57416393  0.41541207  0.43220606  1
  H  H334  1  0.61439441  0.06526553  0.35171386  1
  O  O335  1  0.83280338  0.39527608  0.39878577  1
  C  C336  1  0.61278902  0.15093907  0.44583263  1
  C  C337  1  0.50647317  0.12490643  0.36765530  1
  C  C338  1  0.85836224  0.13082502  0.48863356  1
  H  H339  1  0.74290072  0.00235506  0.27183664  1
  C  C340  1  0.56851805  0.19798589  0.49646586  1
  H  H341  1  0.66909946  0.13510416  0.46527238  1
  H  H342  1  0.82267467  0.33134802  0.56876676  1
  H  H343  1  0.94341130  0.10567470  0.59440293  1
  C  C344  1  0.84164639  0.19399882  0.55040825  1
  H  H345  1  0.94784291  0.42161729  0.74383274  1
  C  C346  1  0.81334408  0.36216571  0.62288949  1
  H  H347  1  0.68963401  0.26689901  0.57426367  1
  H  H348  1  0.89404608  0.06871911  0.72356715  1
  C  C349  1  0.84026491  0.31826851  0.69597327  1
  H  H350  1  0.96851534  0.22863164  0.67804394  1
  H  H351  1  0.87906831  0.47607367  0.50930174  1
  C  C352  1  0.73696642  0.35197218  0.65583478  1
  H  H353  1  0.59204599  0.22324814  0.55099803  1
  C  C354  1  0.72011929  0.39659856  0.72183477  1
  C  C355  1  0.68562370  0.30101081  0.62825425  1
  O  O356  1  0.85206379  0.17526135  0.63623146  1
  C  C357  1  0.83482976  0.45893785  0.62424140  1
  C  C358  1  0.85345644  0.23136175  0.69447706  1
  H  H359  1  0.78818810  0.22549580  0.54752598  1
  H  H360  1  0.86766401  0.02985554  0.57187750  1
  O  O361  1  0.62245712  0.29483040  0.65992481  1
  H  H362  1  0.61142305  0.40181548  0.54511967  1
  C  C363  1  0.61050722  0.33144230  0.72428417  1
  H  H364  1  0.52758650  0.45636390  0.67485046  1
  H  H365  1  0.88510432  0.24352784  0.55213803  1
  C  C366  1  0.87612529  0.04695284  0.51255106  1
  H  H367  1  0.51835859  0.21360410  0.69032140  1
  O  O368  1  0.53471271  0.03316802  0.61379362  1
  C  C369  1  0.99480974  0.46176873  0.74617238  1
  C  C370  1  0.99814073  0.12401695  0.60094636  1
  C  C371  1  0.50714401  0.24284986  0.74617051  1
  H  H372  1  0.76787780  0.47467855  0.80249864  1
  C  C373  1  0.80659144  0.11008481  0.96709817  1
  C  C374  1  0.69523740  0.22102723  0.85394981  1
  O  O375  1  0.85938857  0.37526770  0.90243101  1
  H  H376  1  0.73829017  0.17524919  0.84804637  1
  C  C377  1  0.88155683  0.24959740  0.83051099  1
  C  C378  1  0.90184974  0.10696135  0.77442923  1
  H  H379  1  0.86381803  0.48992605  0.84212778  1
  C  C380  1  0.83787441  0.36425272  0.76507547  1
  C  C381  1  0.53909159  0.35536884  0.83848046  1
  C  C382  1  0.85426509  0.12386609  0.90517254  1
  C  C383  1  0.86124234  0.33731238  0.83728882  1
  H  H384  1  0.57251886  0.40872641  0.85728521  1
  C  C385  1  0.64627829  0.20499972  0.92147354  1
  C  C386  1  0.85393718  0.07591785  0.83985839  1
  C  C387  1  0.97913443  0.10917519  0.80421496  1
  C  C388  1  0.87665637  0.20314592  0.76588075  1
  C  C389  1  0.57480353  0.00613947  0.86192896  1
  C  C390  1  0.52325330  0.03249103  0.98440457  1
  C  C391  1  0.90745931  0.19682686  0.89903022  1
  C  C392  1  0.53986194  0.06581133  0.90592636  1
  H  H393  1  0.92136316  0.23169332  0.95012607  1
  C  C394  1  0.84415832  0.47519941  0.90125636  1
  H  H395  1  0.66695186  0.22917378  0.80164036  1
  H  H396  1  0.52586575  0.12798862  0.88579101  1
  C  C397  1  0.55117014  0.31123058  0.77053046  1
  C  C398  1  0.78779808  0.43904347  0.75338651  1
  C  C399  1  0.76207936  0.04319677  0.96214304  1
  C  C400  1  0.98051901  0.15498009  0.87245008  1
  O  O401  1  0.65861380  0.38517435  0.75440187  1
  Zn  Zn402  1  0.70015653  0.32280481  0.93726971  1
  C  C403  1  0.80155711  0.01142967  0.83537234  1
  C  C404  1  0.62290289  0.24590938  0.98176325  1
  C  C405  1  0.52666580  0.95314503  0.12423743  1
  C  C406  1  0.58763416  0.62340925  0.07330346  1
  C  C407  1  0.97719395  0.86966326  0.05946753  1
  H  H408  1  0.63404926  0.86083874  0.09055935  1
  H  H409  1  0.99565707  0.52837098  0.24608578  1
  H  H410  1  0.71828733  0.75773155  0.14680555  1
  C  C411  1  0.64941137  0.96112532  0.20926050  1
  H  H412  1  0.96224767  0.65301884  0.04944854  1
  H  H413  1  0.96567979  0.83342050  0.24218425  1
  C  C414  1  0.87309225  0.94359972  0.10496835  1
  C  C415  1  0.62395131  0.79326525  0.08450923  1
  H  H416  1  0.98111753  0.68569717  0.20338967  1
  C  C417  1  0.65951291  0.64775560  0.09933437  1
  C  C418  1  0.70781765  0.57950952  0.11642961  1
  C  C419  1  0.87841526  0.78895733  0.11639057  1
  C  C420  1  0.59570071  0.90343711  0.23663045  1
  C  C421  1  0.55943536  0.54044291  0.06845127  1
  C  C422  1  0.84112537  0.86618898  0.12717734  1
  H  H423  1  0.85535315  0.72810911  0.13939331  1
  C  C424  1  0.94265695  0.79084848  0.07709645  1
  C  C425  1  0.93895596  0.94553924  0.06745760  1
  C  C426  1  0.67504193  0.73636714  0.11135252  1
  H  H427  1  0.76211095  0.58736503  0.14271961  1
  H  H428  1  0.79128393  0.86881864  0.16285442  1
  C  C429  1  0.53916968  0.68596675  0.04523189  1
  C  C430  1  0.52887507  0.89467977  0.18990498  1
  C  C431  1  0.55760909  0.77249925  0.05296774  1
  C  C432  1  0.98664351  0.71674924  0.04261589  1
  H  H433  1  0.52072950  0.81796478  0.03037836  1
  C  C434  1  0.66203836  0.92829743  0.47818751  1
  H  H435  1  0.89923352  0.74473960  0.29898914  1
  H  H436  1  0.91840679  0.73316729  0.43977567  1
  C  C437  1  0.69474880  0.79283665  0.27549905  1
  C  C438  1  0.79304276  0.69499160  0.28060799  1
  C  C439  1  0.72065384  0.71091422  0.26711225  1
  H  H440  1  0.91333243  0.92382965  0.47316033  1
  C  C441  1  0.59456161  0.89957337  0.47055492  1
  C  C442  1  0.77347893  0.73471032  0.48275319  1
  C  C443  1  0.66887835  0.93661596  0.34636755  1
  H  H444  1  0.77570338  0.66352951  0.47808783  1
  C  C445  1  0.95181603  0.96543582  0.33020794  1
  H  H446  1  0.85232264  0.89675103  0.29173187  1
  H  H447  1  0.54703107  0.79756322  0.40404259  1
  H  H448  1  0.62240231  0.68484965  0.37542574  1
  C  C449  1  0.57006638  0.55933601  0.35572221  1
  C  C450  1  0.60204642  0.89007501  0.32736597  1
  C  C451  1  0.61902039  0.62035364  0.39864333  1
  C  C452  1  0.65103938  0.60729439  0.47625527  1
  H  H453  1  0.76198753  0.76342515  0.42727020  1
  H  H454  1  0.52725490  0.55030056  0.46975668  1
  O  O455  1  0.96536793  0.88656957  0.35573695  1
  C  C456  1  0.84084004  0.75887118  0.29072348  1
  C  C457  1  0.90311302  0.99026426  0.45833273  1
  C  C458  1  0.70495547  0.95015193  0.26894125  1
  H  H459  1  0.57667357  0.76425449  0.27274273  1
  C  C460  1  0.55802362  0.86718577  0.40057421  1
  H  H461  1  0.80549026  0.62765719  0.28593884  1
  H  H462  1  0.53941758  0.60021803  0.31795526  1
  C  C463  1  0.81496641  0.84433276  0.28685620  1
  C  C464  1  0.99427132  0.82258714  0.29503828  1
  C  C465  1  0.74400999  0.86126994  0.27480204  1
  C  C466  1  0.90921205  0.76544595  0.49123199  1
  C  C467  1  0.70397388  0.95154296  0.41184199  1
  C  C468  1  0.61612505  0.81477312  0.27047591  1
  H  H469  1  0.75681967  0.98555022  0.41619190  1
  O  O470  1  0.96310209  0.98464644  0.26685945  1
  C  C471  1  0.99865383  0.66569107  0.26097577  1
  H  H472  1  0.68529519  0.65727598  0.25264693  1
  C  C473  1  0.82361262  0.58964747  0.70093575  1
  C  C474  1  0.82800014  0.83327147  0.57981340  1
  H  H475  1  0.69188240  0.63003642  0.63604077  1
  C  C476  1  0.72282507  0.77261692  0.73809032  1
  C  C477  1  0.67503072  0.69495639  0.74585032  1
  C  C478  1  0.95331481  0.84681342  0.59670509  1
  H  H479  1  0.96512255  0.55395023  0.65840447  1
  H  H480  1  0.77168388  0.85191980  0.59342213  1
  H  H481  1  0.62357317  0.50736753  0.66890213  1
  H  H482  1  0.62154238  0.79511688  0.63561899  1
  C  C483  1  0.64985899  0.68211247  0.51991110  1
  C  C484  1  0.65720685  0.52619728  0.51341850  1
  C  C485  1  0.88348199  0.86779667  0.62147978  1
  H  H486  1  0.87481468  0.91516158  0.66566716  1
  H  H487  1  0.56275476  0.89327244  0.52181422  1
  C  C488  1  0.85343605  0.63345305  0.64027392  1
  H  H489  1  0.86572497  0.70215711  0.64717196  1
  C  C490  1  0.62271777  0.56110018  0.70987820  1
  C  C491  1  0.69394864  0.92962536  0.68846741  1
  C  C492  1  0.57549562  0.76464405  0.61009547  1
  H  H493  1  0.68379501  0.93277045  0.53414524  1
  H  H494  1  0.69291929  0.51867254  0.56222563  1
  C  C495  1  0.96726588  0.80123143  0.52983124  1
  C  C496  1  0.86645227  0.59278014  0.57157462  1
  H  H497  1  0.74733665  0.76922202  0.68172819  1
  C  C498  1  0.66725453  0.63019575  0.69202276  1
  O  O499  1  0.59035899  0.69003606  0.55749945  1
  H  H500  1  0.52067223  0.91488571  0.67258201  1
  H  H501  1  0.87684205  0.79254945  0.74325611  1
  O  O502  1  0.73196521  0.96875104  0.64906436  1
  C  C503  1  0.67570539  0.85923916  0.74313002  1
  O  O504  1  0.69864237  0.73815187  0.52567545  1
  H  H505  1  0.88684422  0.63174354  0.52402498  1
  C  C506  1  0.85837245  0.50414895  0.56254217  1
  Zn  Zn507  1  0.50421507  0.72904244  0.69199620  1
  C  C508  1  0.50996446  0.80588357  0.60340378  1
  C  C509  1  0.81886315  0.50068201  0.69257244  1
  C  C510  1  0.83852405  0.77779651  0.51789442  1
  H  H511  1  0.80186895  0.96811261  0.78702398  1
  C  C512  1  0.63694788  0.85716100  0.81673212  1
  C  C513  1  0.73544638  0.78534993  0.87393089  1
  C  C514  1  0.58587113  0.55904556  0.77999215  1
  H  H515  1  0.58758833  0.89188631  0.92542636  1
  H  H516  1  0.96579381  0.61779177  0.91252513  1
  H  H517  1  0.74546399  0.81462919  0.99420674  1
  C  C518  1  0.88333111  0.82636396  0.86560820  1
  C  C519  1  0.63882457  0.69263073  0.81623345  1
  C  C520  1  0.77264790  0.80772915  0.94163484  1
  C  C521  1  0.65611410  0.77247911  0.86354221  1
  H  H522  1  0.72043887  0.93436007  0.89261947  1
  H  H523  1  0.93477464  0.85650350  0.86303803  1
  H  H524  1  0.56982256  0.61793739  0.88821269  1
  C  C525  1  0.59391931  0.62375057  0.83424084  1
  C  C526  1  0.59462887  0.91443647  0.86835909  1
  C  C527  1  0.84584431  0.83013140  0.93539632  1
  C  C528  1  0.85083191  0.79428333  0.79871842  1
  H  H529  1  0.62504631  0.76163108  0.91480749  1
  C  C530  1  0.77507641  0.78559873  0.80516187  1
  C  C531  1  0.75421210  0.99302550  0.89389833  1
  O  O532  1  0.82950815  0.51498972  0.95540678  1
  H  H533  1  0.87634763  0.84372113  0.98755195  1
  Zn  Zn534  1  0.61905588  0.97671784  0.75520087  1
  H  H535  1  0.80590245  0.61974302  0.75428639  1
  H  H536  1  0.55333412  0.50467236  0.79080400  1
  C  C537  1  0.99101335  0.67838519  0.89957086  1
