# generated using pymatgen
data_Cu2H15C20NO6
_symmetry_space_group_name_H-M   'P 1'
_cell_length_a   26.36377112
_cell_length_b   19.31911172
_cell_length_c   15.43347952
_cell_angle_alpha   90.00000000
_cell_angle_beta   90.00000000
_cell_angle_gamma   90.00000000
_symmetry_Int_Tables_number   1
_chemical_formula_structural   Cu2H15C20NO6
_chemical_formula_sum   'Cu32 H240 C320 N16 O96'
_cell_volume   7860.65139649
_cell_formula_units_Z   16
loop_
 _symmetry_equiv_pos_site_id
 _symmetry_equiv_pos_as_xyz
  1  'x, y, z'
loop_
 _atom_site_type_symbol
 _atom_site_label
 _atom_site_symmetry_multiplicity
 _atom_site_fract_x
 _atom_site_fract_y
 _atom_site_fract_z
 _atom_site_occupancy
  C  C0  1  0.05640958  0.15882179  0.22215697  1
  C  C1  1  0.12716005  0.13294221  0.12186467  1
  N  N2  1  0.14527764  0.09176284  0.05463794  1
  C  C3  1  0.08073320  0.11570812  0.16366271  1
  C  C4  1  0.15117837  0.19724705  0.14517898  1
  H  H5  1  0.06735259  0.06309064  0.14782533  1
  H  H6  1  0.01901046  0.14410233  0.25017383  1
  C  C7  1  0.08030912  0.22291390  0.24182208  1
  H  H8  1  0.18833306  0.21422890  0.12226558  1
  C  C9  1  0.14840325  0.01910376  0.06351575  1
  O  O10  1  0.19643517  0.09554377  0.30227332  1
  H  H11  1  0.22059572  0.12880141  0.31403793  1
  C  C12  1  0.02876359  0.20117619  0.02061437  1
  O  O13  1  0.01703535  0.06291342  0.33946522  1
  H  H14  1  0.17326653  0.12271796  0.26919380  1
  H  H15  1  0.06004100  0.21721225  0.06418045  1
  H  H16  1  0.00467130  0.11495952  0.10397679  1
  H  H17  1  0.01203410  0.12242394  0.42060651  1
  O  O18  1  0.00484072  0.15493906  0.47077925  1
  C  C19  1  0.12716813  0.24187720  0.20076851  1
  H  H20  1  0.15999549  0.01275453  0.20756126  1
  H  H21  1  0.23742149  0.00856217  0.35604970  1
  O  O22  1  0.02135551  0.24907440  0.34006194  1
  H  H23  1  0.01714986  0.00559815  0.48083279  1
  C  C24  1  0.04175007  0.01186138  0.28324639  1
  C  C25  1  0.26890544  0.00210647  0.11295149  1
  H  H26  1  0.25475374  0.07487687  0.22063675  1
  C  C27  1  0.41572446  0.11008448  0.16167328  1
  C  C28  1  0.32090382  0.15480755  0.29513866  1
  C  C29  1  0.42966987  0.01021253  0.28782081  1
  H  H30  1  0.40426633  0.15081940  0.11622202  1
  H  H31  1  0.47604042  0.17396600  0.22689694  1
  C  C32  1  0.45413456  0.12430579  0.22452291  1
  H  H33  1  0.41401357  0.18664960  0.32555339  1
  N  N34  1  0.29494525  0.19125752  0.14634852  1
  C  C35  1  0.48531494  0.15869827  0.39395679  1
  C  C36  1  0.45768018  0.07498250  0.29184683  1
  H  H37  1  0.49607633  0.18316335  0.05227650  1
  H  H38  1  0.48305643  0.08661170  0.00858056  1
  C  C39  1  0.44138209  0.20168304  0.37505095  1
  C  C40  1  0.30993779  0.11591532  0.02316940  1
  C  C41  1  0.29029194  0.12417197  0.11007210  1
  C  C42  1  0.29988022  0.23713946  0.40312880  1
  N  N43  1  0.48495690  0.08907826  0.36984988  1
  H  H44  1  0.34088610  0.11049750  0.26867356  1
  H  H45  1  0.34601272  0.14317754  0.42760881  1
  H  H46  1  0.35963739  0.04534243  0.10872865  1
  C  C47  1  0.32650322  0.17469943  0.37944489  1
  C  C48  1  0.38699719  0.04987361  0.16067540  1
  C  C49  1  0.29522849  0.20203574  0.23486565  1
  C  C50  1  0.26933490  0.06817411  0.15631454  1
  C  C51  1  0.48550419  0.23605615  0.03442345  1
  C  C52  1  0.17995974  0.22220838  0.88460583  1
  C  C53  1  0.15306383  0.19384195  0.95134668  1
  H  H54  1  0.09665404  0.19791511  0.80787472  1
  C  C55  1  0.20141730  0.09089950  0.93132994  1
  H  H56  1  0.13233536  0.21175983  0.66088358  1
  C  C57  1  0.21930515  0.18604264  0.83951406  1
  C  C58  1  0.23002463  0.11846917  0.86432502  1
  H  H59  1  0.21242370  0.04246481  0.96189594  1
  H  H60  1  0.07315559  0.00856313  0.81190278  1
  C  C61  1  0.08601636  0.24229260  0.77276228  1
  C  C62  1  0.16083105  0.12285882  0.97718804  1
  H  H63  1  0.12503667  0.22756279  0.98089406  1
  C  C64  1  0.24917080  0.22202439  0.77509644  1
  H  H65  1  0.01535901  0.08456535  0.83185541  1
  C  C66  1  0.01759505  0.23509880  0.94106267  1
  H  H67  1  0.13191225  0.00133679  0.92683120  1
  H  H68  1  0.08745609  0.00325257  0.59878820  1
  H  H69  1  0.01136352  0.00550375  0.95938241  1
  H  H70  1  0.24283752  0.20742947  0.99797828  1
  H  H71  1  0.32805862  0.15903332  0.99036216  1
  Cu  Cu72  1  0.39916798  0.22128811  0.57569955  1
  H  H73  1  0.32582130  0.04734695  0.91590496  1
  O  O74  1  0.49704633  0.18561458  0.69598283  1
  C  C75  1  0.30915505  0.05428553  0.97987429  1
  O  O76  1  0.40584237  0.03129763  0.81749919  1
  O  O77  1  0.37009291  0.08384481  0.70354891  1
  Cu  Cu78  1  0.35258012  0.20283476  0.78290949  1
  H  H79  1  0.26232894  0.09177743  0.83108579  1
  O  O80  1  0.40288948  0.22635737  0.69809992  1
  H  H81  1  0.44861426  0.11617956  0.51657684  1
  O  O82  1  0.42866080  0.13258229  0.56306196  1
  Cu  Cu83  1  0.43100281  0.13249825  0.68886543  1
  O  O84  1  0.33021849  0.21673173  0.53935623  1
  C  C85  1  0.41242319  0.19305912  0.94382777  1
  O  O86  1  0.37311182  0.21453646  0.89542840  1
  O  O87  1  0.28634481  0.19028315  0.73844314  1
  C  C88  1  0.36870459  0.03939457  0.76356626  1
  H  H89  1  0.28083445  0.05139206  0.67352870  1
  O  O90  1  0.41946059  0.13258592  0.95615487  1
  C  C91  1  0.28043989  0.00899262  0.72233549  1
  C  C92  1  0.32354090  0.00126839  0.77988602  1
  C  C93  1  0.11469881  0.37499630  0.08886725  1
  H  H94  1  0.11124444  0.38279868  0.15861832  1
  C  C95  1  0.19486731  0.43895982  0.09211768  1
  C  C96  1  0.15621034  0.40497914  0.04315873  1
  O  O97  1  0.07920855  0.33308841  0.31609658  1
  Cu  Cu98  1  0.06831832  0.38927361  0.41560780  1
  H  H99  1  0.14694933  0.28983562  0.21876941  1
  H  H100  1  0.04337472  0.31559854  0.08248426  1
  C  C101  1  0.07536784  0.34083389  0.04800686  1
  O  O102  1  0.07116465  0.48410703  0.40198612  1
  O  O103  1  0.18985171  0.44952331  0.17207912  1
  C  C104  1  0.06096296  0.27255350  0.30263097  1
  O  O105  1  0.14767858  0.49089197  0.34953067  1
  O  O106  1  0.23294996  0.47031996  0.05385420  1
  H  H107  1  0.47089495  0.34223912  0.21880351  1
  C  C108  1  0.47020782  0.26888227  0.49463593  1
  C  C109  1  0.26677340  0.25246625  0.01518331  1
  Cu  Cu110  1  0.41846301  0.44299556  0.49650409  1
  C  C111  1  0.45264000  0.37543655  0.00289735  1
  H  H112  1  0.34426697  0.30827939  0.17788480  1
  H  H113  1  0.25441181  0.29825078  0.21481887  1
  C  C114  1  0.27236110  0.28395200  0.35036152  1
  H  H115  1  0.39795167  0.28755589  0.41516983  1
  C  C116  1  0.33359519  0.36240724  0.05443381  1
  C  C117  1  0.49391033  0.36016380  0.05979250  1
  O  O118  1  0.34452576  0.44753144  0.49267409  1
  O  O119  1  0.30213663  0.46795531  0.17158107  1
  H  H120  1  0.28622631  0.42372255  0.17648307  1
  H  H121  1  0.25472508  0.33153904  0.37539963  1
  C  C122  1  0.32628694  0.31018940  0.11256722  1
  H  H123  1  0.35726108  0.40583650  0.07116225  1
  C  C124  1  0.27265939  0.26428479  0.26455277  1
  C  C125  1  0.29397962  0.25097535  0.09409291  1
  C  C126  1  0.43455792  0.25778783  0.42567160  1
  H  H127  1  0.32183378  0.40999671  0.48315885  1
  C  C128  1  0.30288616  0.25601307  0.49404655  1
  H  H129  1  0.15752680  0.39901501  0.73023190  1
  C  C130  1  0.11990578  0.36571806  0.91160829  1
  H  H131  1  0.12089753  0.35778294  0.84445726  1
  C  C132  1  0.08807088  0.31544288  0.64984675  1
  H  H133  1  0.04183259  0.41325619  0.65451382  1
  C  C134  1  0.05531024  0.36367191  0.68832874  1
  C  C135  1  0.03730621  0.35489234  0.77146169  1
  C  C136  1  0.11024632  0.33065087  0.56535170  1
  C  C137  1  0.05553981  0.29535206  0.81543146  1
  N  N138  1  0.04903621  0.28731949  0.90556962  1
  C  C139  1  0.15065598  0.45428260  0.71197782  1
  H  H140  1  0.19063079  0.42066386  0.91557136  1
  H  H141  1  0.08129180  0.46061869  0.78833756  1
  C  C142  1  0.22484170  0.45242773  0.61482250  1
  Cu  Cu143  1  0.21315232  0.30855443  0.56263124  1
  O  O144  1  0.22912912  0.38634590  0.63208665  1
  O  O145  1  0.09380664  0.38413181  0.52922627  1
  O  O146  1  0.14599812  0.29342678  0.53337713  1
  H  H147  1  0.01001063  0.39237364  0.80121236  1
  C  C148  1  0.18137969  0.48911861  0.65264097  1
  C  C149  1  0.15937539  0.39800059  0.95218581  1
  C  C150  1  0.07865351  0.33009484  0.95569725  1
  C  C151  1  0.10780537  0.48796154  0.74549393  1
  C  C152  1  0.10646056  0.25292867  0.69133553  1
  O  O153  1  0.23890558  0.28445590  0.75716647  1
  H  H154  1  0.24403535  0.30596043  0.89983733  1
  H  H155  1  0.17334719  0.27552535  0.86742161  1
  H  H156  1  0.00247089  0.25873733  0.62657984  1
  O  O157  1  0.25345227  0.48365405  0.56541929  1
  C  C158  1  0.44220952  0.25016244  0.98391236  1
  C  C159  1  0.45861818  0.31735568  0.56200687  1
  H  H160  1  0.44336085  0.39147323  0.76490535  1
  C  C161  1  0.42757346  0.31963966  0.96546112  1
  C  C162  1  0.26735556  0.30949168  0.96134806  1
  C  C163  1  0.31895864  0.40796286  0.90578513  1
  O  O164  1  0.48553133  0.32301184  0.63067629  1
  Cu  Cu165  1  0.46505966  0.26807327  0.73438369  1
  H  H166  1  0.39796186  0.32790797  0.91491838  1
  Cu  Cu167  1  0.37649894  0.31828180  0.69440862  1
  C  C168  1  0.30601687  0.35947506  0.97510416  1
  O  O169  1  0.42050657  0.35700894  0.55061946  1
  O  O170  1  0.35439456  0.44690714  0.91411073  1
  H  H171  1  0.36377944  0.43952760  0.74711555  1
  Cu  Cu172  1  0.28892206  0.35423512  0.73377858  1
  O  O173  1  0.28742322  0.40576026  0.84020032  1
  O  O174  1  0.34539490  0.40911299  0.70828328  1
  O  O175  1  0.27840512  0.30656103  0.52825399  1
  O  O176  1  0.43073668  0.34717967  0.77067999  1
  H  H177  1  0.44166874  0.42737406  0.98028387  1
  C  C178  1  0.16601990  0.62228751  0.41618727  1
  C  C179  1  0.10903601  0.61158770  0.12424762  1
  C  C180  1  0.12005121  0.58744799  0.43150674  1
  H  H181  1  0.19680456  0.59433518  0.38775566  1
  O  O182  1  0.08383934  0.64136354  0.17625138  1
  O  O183  1  0.14537867  0.56903061  0.14381789  1
  C  C184  1  0.10036234  0.61765452  0.02736459  1
  C  C185  1  0.17172572  0.68893361  0.44794994  1
  H  H186  1  0.05656772  0.66445549  0.30251123  1
  H  H187  1  0.20775699  0.71271413  0.44775299  1
  C  C188  1  0.01640613  0.67001326  0.32170415  1
  Cu  Cu189  1  0.15549734  0.51745775  0.24074755  1
  H  H190  1  0.01103746  0.56435780  0.36261621  1
  H  H191  1  0.03430781  0.67890813  0.05208131  1
  C  C192  1  0.11199780  0.51836915  0.39398881  1
  C  C193  1  0.07953926  0.61988519  0.47618461  1
  C  C194  1  0.05827143  0.65433241  0.00316140  1
  C  C195  1  0.13050782  0.72051742  0.49297237  1
  H  H196  1  0.04477319  0.58790133  0.48536869  1
  O  O197  1  0.02295010  0.50884188  0.00333076  1
  C  C198  1  0.34392461  0.74890921  0.33600446  1
  H  H199  1  0.49368004  0.67770875  0.31815149  1
  H  H200  1  0.34263915  0.59961669  0.21478999  1
  O  O201  1  0.42854926  0.56629070  0.12290490  1
  H  H202  1  0.47843503  0.74457463  0.18174360  1
  H  H203  1  0.46175930  0.56750114  0.10716642  1
  H  H204  1  0.41168336  0.59741183  0.30646795  1
  Cu  Cu205  1  0.37836589  0.59839636  0.05721372  1
  C  C206  1  0.34761192  0.68580237  0.47317381  1
  O  O207  1  0.42290041  0.52942287  0.44627128  1
  C  C208  1  0.39149388  0.64103127  0.33824972  1
  C  C209  1  0.32763948  0.73864172  0.42369400  1
  C  C210  1  0.38019720  0.70013752  0.29408582  1
  O  O211  1  0.33153885  0.59602754  0.15423968  1
  C  C212  1  0.39522151  0.57713431  0.47939901  1
  Cu  Cu213  1  0.28047274  0.53327873  0.10268940  1
  C  C214  1  0.37835030  0.63678452  0.42966953  1
  H  H215  1  0.39367525  0.70834986  0.22997760  1
  O  O216  1  0.25530657  0.60845224  0.03026003  1
  C  C217  1  0.02557860  0.64310858  0.72269782  1
  C  C218  1  0.04480611  0.65350781  0.91611475  1
  C  C219  1  0.07343181  0.61312839  0.85439515  1
  H  H220  1  0.12589471  0.64982986  0.64886254  1
  N  N221  1  0.06326420  0.60357778  0.76608566  1
  C  C222  1  0.13045783  0.59342666  0.66596533  1
  C  C223  1  0.12110200  0.58546689  0.88453105  1
  C  C224  1  0.09574549  0.55773914  0.72241499  1
  C  C225  1  0.17161735  0.55986271  0.63176007  1
  H  H226  1  0.14784936  0.56092479  0.83729656  1
  H  H227  1  0.19446997  0.58574084  0.58389930  1
  H  H228  1  0.00967733  0.67497624  0.89391339  1
  C  C229  1  0.00190904  0.70662556  0.75905342  1
  H  H230  1  0.05027547  0.71335216  0.53456772  1
  H  H231  1  0.19072527  0.68604397  0.62257042  1
  C  C232  1  0.20766574  0.70109714  0.93052392  1
  H  H233  1  0.03343524  0.57594494  0.61480943  1
  C  C234  1  0.01207377  0.62175018  0.63756658  1
  C  C235  1  0.20874255  0.73686547  0.60671722  1
  C  C236  1  0.08186059  0.68690483  0.50478490  1
  C  C237  1  0.13498774  0.58546286  0.97034558  1
  H  H238  1  0.01344812  0.73151713  0.81959792  1
  H  H239  1  0.18946558  0.66935246  0.97915712  1
  H  H240  1  0.04528303  0.53889682  0.98097393  1
  H  H241  1  0.17075689  0.55993819  0.99130459  1
  H  H242  1  0.33973387  0.67844514  0.54271321  1
  H  H243  1  0.28031036  0.70306954  0.66579634  1
  H  H244  1  0.48290419  0.67363137  0.81936666  1
  H  H245  1  0.25970566  0.58269674  0.66580585  1
  H  H246  1  0.33769033  0.73339813  0.87518215  1
  C  C247  1  0.28405997  0.63884897  0.97704102  1
  C  C248  1  0.29491877  0.73618985  0.87713249  1
  Cu  Cu249  1  0.31716091  0.52225943  0.57175438  1
  H  H250  1  0.46740142  0.61407662  0.95125859  1
  O  O251  1  0.43189619  0.61291797  0.95256196  1
  Cu  Cu252  1  0.39166502  0.62844116  0.85099592  1
  Cu  Cu253  1  0.40692129  0.71271539  0.72115674  1
  H  H254  1  0.33264531  0.61952633  0.71952142  1
  O  O255  1  0.29384131  0.58593771  0.65224175  1
  O  O256  1  0.45017038  0.66441217  0.79366062  1
  C  C257  1  0.26164316  0.69149920  0.92421573  1
  O  O258  1  0.35844137  0.64735051  0.75452818  1
  O  O259  1  0.33321585  0.63624215  0.97413031  1
  O  O260  1  0.37867270  0.57069733  0.55630224  1
  C  C261  1  0.25864075  0.74261596  0.63133840  1
  C  C262  1  0.19926760  0.83749589  0.35773736  1
  C  C263  1  0.15524785  0.87384599  0.07020988  1
  H  H264  1  0.15419366  0.81677433  0.06481453  1
  C  C265  1  0.16530349  0.91312748  0.14743348  1
  H  H266  1  0.17594565  0.88815623  0.20854811  1
  H  H267  1  0.08721014  0.93198795  0.17254353  1
  C  C268  1  0.04835408  0.94234886  0.15454968  1
  H  H269  1  0.05013157  0.87316935  0.04598358  1
  C  C270  1  0.19509470  0.91114330  0.36180963  1
  H  H271  1  0.15552627  0.93438337  0.36996496  1
  C  C272  1  0.24050654  0.95121628  0.35338629  1
  H  H273  1  0.05708759  0.78769707  0.42187255  1
  C  C274  1  0.03351236  0.89500964  0.44873638  1
  C  C275  1  0.06162234  0.83472098  0.46139891  1
  C  C276  1  0.02920490  0.91048752  0.08125661  1
  C  C277  1  0.01732674  0.99001975  0.20023211  1
  C  C278  1  0.15619108  0.98450188  0.14528856  1
  O  O279  1  0.08138205  0.99002519  0.30470517  1
  H  H280  1  0.00815537  0.89860695  0.39198867  1
  H  H281  1  0.16707578  0.80267766  0.37577385  1
  O  O282  1  0.01598470  0.78367823  0.26415687  1
  C  C283  1  0.24468122  0.80616604  0.33543131  1
  C  C284  1  0.03818449  0.95774531  0.49701934  1
  H  H285  1  0.24625726  0.75017358  0.32093740  1
  H  H286  1  0.25333357  0.95466766  0.14520567  1
  O  O287  1  0.49493052  0.94322713  0.04460164  1
  C  C288  1  0.44729221  0.93656560  0.03405641  1
  C  C289  1  0.28826067  0.84933159  0.32162700  1
  C  C290  1  0.44336307  0.87660328  0.17688402  1
  H  H291  1  0.32094666  0.95535565  0.31666904  1
  C  C292  1  0.28262322  0.99771779  0.02516395  1
  N  N293  1  0.33118690  0.81240948  0.29852591  1
  C  C294  1  0.36539553  0.89300489  0.09500587  1
  C  C295  1  0.36289545  0.83759557  0.23149506  1
  H  H296  1  0.43207310  0.97179992  0.33958186  1
  H  H297  1  0.48534197  0.88268860  0.18354213  1
  H  H298  1  0.29623625  0.85330877  0.14884603  1
  H  H299  1  0.36978211  0.95140352  0.22393491  1
  C  C300  1  0.33558713  0.86464634  0.15731690  1
  C  C301  1  0.41586074  0.84313543  0.24000588  1
  C  C302  1  0.41883924  0.90377574  0.10429526  1
  H  H303  1  0.34824645  0.90753054  0.03314518  1
  H  H304  1  0.30735894  0.77752404  0.46153621  1
  C  C305  1  0.28651188  0.92346450  0.33166923  1
  H  H306  1  0.43395346  0.81826187  0.29648115  1
  C  C307  1  0.39380396  0.99742534  0.22483890  1
  H  H308  1  0.13764569  0.90279440  0.62423206  1
  C  C309  1  0.10615375  0.89763702  0.57760399  1
  C  C310  1  0.06567938  0.83883992  0.74658675  1
  C  C311  1  0.11764270  0.82410847  0.74070564  1
  C  C312  1  0.15263184  0.87160644  0.77543072  1
  N  N313  1  0.20377237  0.85833597  0.79848562  1
  C  C314  1  0.07686489  0.95621405  0.56167949  1
  N  N315  1  0.13818057  0.78548572  0.53269031  1
  C  C316  1  0.21249416  0.86088952  0.55883305  1
  C  C317  1  0.21701435  0.79430983  0.82941035  1
  C  C318  1  0.18519522  0.79695480  0.56902230  1
  H  H319  1  0.13198751  0.77817112  0.71230356  1
  H  H320  1  0.14772587  0.87430117  0.93176728  1
  H  H321  1  0.14159427  0.75284929  0.87914379  1
  H  H322  1  0.03786028  0.80000355  0.72591625  1
  C  C323  1  0.04945796  0.90404416  0.77726157  1
  C  C324  1  0.13864535  0.94129148  0.79341351  1
  C  C325  1  0.09873473  0.83533840  0.52772620  1
  H  H326  1  0.20737281  0.96075880  0.68197847  1
  H  H327  1  0.00720319  0.91817179  0.77950015  1
  H  H328  1  0.18525163  0.89930261  0.52679907  1
  C  C329  1  0.08710325  0.95620548  0.79573510  1
  H  H330  1  0.16505522  0.98225887  0.82126542  1
  C  C331  1  0.24018446  0.91238905  0.79489089  1
  C  C332  1  0.24070197  0.96432941  0.72822443  1
  C  C333  1  0.18398452  0.75039845  0.88140459  1
  C  C334  1  0.14337092  0.97860276  0.98549076  1
  C  C335  1  0.14963178  0.90691149  0.98936515  1
  H  H336  1  0.28228781  0.94582108  0.99581038  1
  O  O337  1  0.35818924  0.86585970  0.63694970  1
  H  H338  1  0.35465067  0.94127061  0.89405179  1
  O  O339  1  0.42659622  0.95697930  0.96513742  1
  C  C340  1  0.28099889  0.91066884  0.85593681  1
  H  H341  1  0.43547306  0.82064679  0.65047010  1
  O  O342  1  0.47009279  0.85983776  0.86469919  1
  Cu  Cu343  1  0.43707924  0.94639130  0.84108524  1
  C  C344  1  0.33819658  0.81037869  0.63007052  1
  O  O345  1  0.45415977  0.78425063  0.67952374  1
  H  H346  1  0.28674502  0.91663387  0.56285649  1
  H  H347  1  0.29676071  0.81050619  0.77726879  1
  H  H348  1  0.49255069  0.85508820  0.91298225  1
  C  C349  1  0.32278120  0.95101759  0.84740974  1
  C  C350  1  0.27153807  0.78484017  0.82727740  1
  C  C351  1  0.28278787  0.80471640  0.61587583  1
  C  C352  1  0.26309772  0.86816184  0.58038496  1
  H  H353  1  0.42920449  0.92467956  0.68569384  1
  O  O354  1  0.45091163  0.93417745  0.72872180  1
  H  H355  1  0.27877924  0.87705871  0.91276075  1
  O  O356  1  0.35930270  0.75108324  0.65058365  1
  C  C357  1  0.70077030  0.10352240  0.26137791  1
  H  H358  1  0.67427577  0.06573603  0.27700184  1
  C  C359  1  0.73582036  0.09775072  0.19749664  1
  H  H360  1  0.56718104  0.10627078  0.14533019  1
  C  C361  1  0.58832309  0.15845810  0.14594875  1
  H  H362  1  0.56184650  0.14463977  0.45529778  1
  C  C363  1  0.69869587  0.16850417  0.30575316  1
  C  C364  1  0.58465565  0.19892607  0.22141340  1
  H  H365  1  0.57153509  0.17864160  0.28173064  1
  C  C366  1  0.52581239  0.17675302  0.45342678  1
  H  H367  1  0.73381843  0.05498287  0.15000956  1
  C  C368  1  0.65730362  0.17668855  0.36863608  1
  H  H369  1  0.70674565  0.14207548  0.04604249  1
  O  O370  1  0.62283125  0.14139815  0.39388924  1
  O  O371  1  0.51246203  0.08060239  0.04251157  1
  Cu  Cu372  1  0.52771121  0.00992294  0.10985107  1
  H  H373  1  0.63619863  0.24191272  0.45047777  1
  C  C374  1  0.61717234  0.18178550  0.07607080  1
  C  C375  1  0.50662682  0.03553248  0.41520425  1
  C  C376  1  0.73360545  0.22504667  0.29233342  1
  O  O377  1  0.66194351  0.24800964  0.40510745  1
  H  H378  1  0.62157328  0.14826512  0.02077592  1
  C  C379  1  0.74981337  0.02612680  0.43036937  1
  C  C380  1  0.64293077  0.24729199  0.07283009  1
  C  C381  1  0.96682769  0.00968230  0.17504436  1
  C  C382  1  0.82546014  0.21064318  0.08360796  1
  C  C383  1  0.77373356  0.21348479  0.24028820  1
  C  C384  1  0.99826351  0.14425938  0.04161486  1
  C  C385  1  0.81790054  0.02261723  0.12821149  1
  N  N386  1  0.80828789  0.14833985  0.11976773  1
  H  H387  1  0.94299725  0.04734002  0.21170514  1
  O  O388  1  0.88766550  0.10947560  0.39558591  1
  H  H389  1  0.98291228  0.05165778  0.32425735  1
  C  C390  1  0.77417592  0.15239254  0.18686490  1
  Cu  Cu391  1  0.81876295  0.14570715  0.40001081  1
  C  C392  1  0.87765518  0.21173660  0.05381157  1
  H  H393  1  0.80867952  0.01970055  0.19695841  1
  O  O394  1  0.79019920  0.05060680  0.39519755  1
  C  C395  1  0.82603313  0.08491446  0.08117696  1
  H  H396  1  0.87740792  0.01850591  0.28295360  1
  H  H397  1  0.90216123  0.16769185  0.07249821  1
  C  C398  1  0.90118617  0.06038933  0.44243744  1
  O  O399  1  0.84033745  0.23737245  0.40216530  1
  H  H400  1  0.80640350  0.24639525  0.23432734  1
  H  H401  1  0.94087793  0.07214423  0.00586505  1
  C  C402  1  0.71127953  0.15762269  0.97377380  1
  C  C403  1  0.71703788  0.20569730  0.79470943  1
  C  C404  1  0.69579604  0.22452352  0.94602036  1
  C  C405  1  0.73535742  0.11752377  0.91169760  1
  H  H406  1  0.52596195  0.18004760  0.65870335  1
  H  H407  1  0.71921531  0.21731744  0.72692387  1
  C  C408  1  0.73730123  0.14184475  0.82573258  1
  H  H409  1  0.51390234  0.09429640  0.54030775  1
  C  C410  1  0.51757759  0.04554665  0.50511035  1
  O  O411  1  0.73343897  0.04828879  0.50172345  1
  H  H412  1  0.54704077  0.24555546  0.55084011  1
  C  C413  1  0.51610769  0.23062291  0.50757278  1
  H  H414  1  0.75312399  0.06509105  0.92060564  1
  C  C415  1  0.84606007  0.08390306  0.99614240  1
  Cu  Cu416  1  0.77324371  0.04146281  0.60486742  1
  O  O417  1  0.97945070  0.24945045  0.57869430  1
  C  C418  1  0.76252253  0.09595747  0.76478195  1
  O  O419  1  0.76801734  0.11332690  0.68567397  1
  O  O420  1  0.91654370  0.07730349  0.51885851  1
  C  C421  1  0.95987609  0.02350953  0.75870566  1
  H  H422  1  0.92005285  0.13627707  0.86901731  1
  H  H423  1  0.95849016  0.05293340  0.69718453  1
  O  O424  1  0.89436894  0.18010363  0.62640261  1
  H  H425  1  0.87009983  0.14703121  0.64642198  1
  C  C426  1  0.85962887  0.02117677  0.95664961  1
  C  C427  1  0.95945575  0.11931618  0.98749312  1
  H  H428  1  0.87747984  0.02102899  0.89022430  1
  H  H429  1  0.97640528  0.23719109  0.81405527  1
  C  C430  1  0.97909566  0.21312184  0.88121858  1
  C  C431  1  0.99119514  0.03676859  0.83088619  1
  H  H432  1  0.84836190  0.13126807  0.95995009  1
  C  C433  1  0.94971259  0.15771591  0.91010896  1
  O  O434  1  0.78304731  0.03947420  0.78918422  1
  Cu  Cu435  1  0.94930916  0.16292629  0.54641070  1
  H  H436  1  0.65389543  0.33887574  0.16182084  1
  C  C437  1  0.58717733  0.42580892  0.20941387  1
  C  C438  1  0.60181393  0.41176734  0.29456764  1
  C  C439  1  0.73324021  0.44859854  0.38524190  1
  H  H440  1  0.71563728  0.41540059  0.20660553  1
  H  H441  1  0.58901283  0.36048785  0.41622914  1
  C  C442  1  0.53783588  0.40224116  0.18113293  1
  C  C443  1  0.57160063  0.37137067  0.35246369  1
  C  C444  1  0.73702808  0.42745173  0.47532752  1
  H  H445  1  0.61148526  0.45826005  0.16891370  1
  H  H446  1  0.64118612  0.42252278  0.31365709  1
  C  C447  1  0.51125136  0.29039253  0.07490273  1
  C  C448  1  0.52980075  0.47601771  0.05105179  1
  C  C449  1  0.52631540  0.34021725  0.32055179  1
  H  H450  1  0.73009095  0.27292528  0.33649290  1
  C  C451  1  0.63685450  0.28768919  0.15200655  1
  N  N452  1  0.52240257  0.41655136  0.09594016  1
  C  C453  1  0.70447611  0.47081688  0.19876327  1
  H  H454  1  0.54000691  0.27986484  0.11966416  1
  H  H455  1  0.60777069  0.29325427  0.28312654  1
  H  H456  1  0.50371336  0.30483471  0.36339369  1
  C  C457  1  0.60480524  0.26838356  0.21892530  1
  C  C458  1  0.50831297  0.35923318  0.23627791  1
  H  H459  1  0.59975708  0.37289319  0.02545658  1
  C  C460  1  0.68725659  0.49123513  0.11652623  1
  H  H461  1  0.69620478  0.45618681  0.06498876  1
  N  N462  1  0.67158348  0.27248167  0.00470333  1
  C  C463  1  0.79331015  0.27042924  0.07459966  1
  H  H464  1  0.75405659  0.27302428  0.10103612  1
  O  O465  1  0.98896743  0.34572724  0.44842454  1
  H  H466  1  0.83720856  0.42974172  0.46245747  1
  C  C467  1  0.82143451  0.27501152  0.46059950  1
  H  H468  1  0.96676982  0.37321298  0.48052378  1
  H  H469  1  0.82090708  0.33000894  0.29795647  1
  C  C470  1  0.79499472  0.35564613  0.34456797  1
  C  C471  1  0.79132899  0.33328953  0.43090949  1
  O  O472  1  0.96256358  0.42119963  0.06887133  1
  C  C473  1  0.76794925  0.41600980  0.32685153  1
  Cu  Cu474  1  0.99936831  0.25268210  0.46164307  1
  H  H475  1  0.93125428  0.40220568  0.09030880  1
  O  O476  1  0.97353462  0.48545598  0.22095760  1
  C  C477  1  0.81352189  0.32698395  0.03027062  1
  H  H478  1  0.77427730  0.43617880  0.26016444  1
  Cu  Cu479  1  0.99528202  0.49785150  0.11003300  1
  H  H480  1  0.94484026  0.45678204  0.24045475  1
  C  C481  1  0.89579860  0.26798471  0.01052907  1
  H  H482  1  0.79233561  0.37580960  0.02420506  1
  C  C483  1  0.84823701  0.48136430  0.49129852  1
  C  C484  1  0.76257601  0.36819573  0.49536068  1
  C  C485  1  0.67931915  0.34262661  0.98433269  1
  C  C486  1  0.64041996  0.45513296  0.96458484  1
  C  C487  1  0.52668888  0.48303783  0.95769653  1
  C  C488  1  0.72254209  0.36482016  0.93853397  1
  C  C489  1  0.72350805  0.42952668  0.90104976  1
  C  C490  1  0.68319418  0.47645383  0.91556062  1
  H  H491  1  0.68378455  0.30188124  0.84721207  1
  H  H492  1  0.51965796  0.43688649  0.91875636  1
  C  C493  1  0.63621601  0.38965389  0.99641375  1
  C  C494  1  0.70010900  0.25038010  0.86048999  1
  H  H495  1  0.74940884  0.32559643  0.92329764  1
  H  H496  1  0.71759957  0.45137545  0.53161655  1
  H  H497  1  0.60650841  0.48795223  0.97522140  1
  O  O498  1  0.99270956  0.48090295  0.85080710  1
  H  H499  1  0.93399916  0.26474050  0.98097946  1
  O  O500  1  0.88978791  0.35969486  0.55590186  1
  H  H501  1  0.76427993  0.35471259  0.56429010  1
  O  O502  1  0.92307176  0.38940064  0.91079125  1
  Cu  Cu503  1  0.97754193  0.44615609  0.95990513  1
  O  O504  1  0.82698023  0.26232716  0.53874303  1
  C  C505  1  0.88078994  0.38732308  0.94714390  1
  Cu  Cu506  1  0.88566688  0.26804430  0.58810131  1
  H  H507  1  0.75503979  0.44478922  0.85875844  1
  C  C508  1  0.90829744  0.41641290  0.58809558  1
  C  C509  1  0.86362113  0.32385035  0.99251865  1
  O  O510  1  0.84882905  0.43573938  0.94188105  1
  O  O511  1  0.93940943  0.42042466  0.64283288  1
  C  C512  1  0.88689596  0.48543614  0.55461450  1
  H  H513  1  0.66276298  0.62364495  0.30148126  1
  C  C514  1  0.62282560  0.55557406  0.41195280  1
  H  H515  1  0.64315495  0.65671184  0.15430808  1
  C  C516  1  0.67657338  0.54321514  0.42110002  1
  C  C517  1  0.66790972  0.58342206  0.25161354  1
  C  C518  1  0.65315031  0.60269068  0.16815376  1
  C  C519  1  0.66248859  0.55444571  0.09706872  1
  C  C520  1  0.54145598  0.53900004  0.09737733  1
  H  H521  1  0.55694907  0.64375961  0.10117081  1
  C  C522  1  0.54860031  0.60167709  0.05589206  1
  C  C523  1  0.52237429  0.71779980  0.29806737  1
  H  H524  1  0.57908018  0.70818998  0.40857831  1
  C  C525  1  0.56906537  0.73221159  0.34703261  1
  C  C526  1  0.73056394  0.74961201  0.30333271  1
  H  H527  1  0.65800104  0.57081627  0.02879549  1
  H  H528  1  0.54540469  0.54133081  0.16950127  1
  H  H529  1  0.56024721  0.61418219  0.46354016  1
  H  H530  1  0.72490733  0.72532653  0.16693998  1
  C  C531  1  0.68964575  0.51605654  0.27021931  1
  H  H532  1  0.60167944  0.53259968  0.35907501  1
  N  N533  1  0.70156465  0.50361797  0.35763811  1
  C  C534  1  0.59995214  0.59911144  0.46963824  1
  C  C535  1  0.73771797  0.70811715  0.22784851  1
  C  C536  1  0.70246337  0.57247466  0.49538222  1
  N  N537  1  0.81228814  0.66486420  0.46113409  1
  C  C538  1  0.78045986  0.66639737  0.38873982  1
  C  C539  1  0.78917655  0.69070749  0.01872043  1
  H  H540  1  0.87788667  0.68190123  0.41685423  1
  C  C541  1  0.75239172  0.72913977  0.38366235  1
  H  H542  1  0.85834409  0.62251180  0.10479280  1
  H  H543  1  0.80606609  0.57426615  0.32141524  1
  C  C544  1  0.81558964  0.71993447  0.09389726  1
  C  C545  1  0.76621360  0.64571970  0.23405668  1
  C  C546  1  0.82170456  0.53964837  0.46438567  1
  H  H547  1  0.91038259  0.66215028  0.22449089  1
  H  H548  1  0.79405721  0.53984521  0.41442442  1
  H  H549  1  0.91898890  0.57238666  0.41751657  1
  H  H550  1  0.96186797  0.68994777  0.14212731  1
  O  O551  1  0.94266168  0.57468603  0.08131436  1
  C  C552  1  0.78361457  0.62107667  0.31467777  1
  H  H553  1  0.77378389  0.61313805  0.17733543  1
  C  C554  1  0.85269710  0.67716803  0.13029092  1
  C  C555  1  0.91548553  0.67989713  0.38705259  1
  C  C556  1  0.99101217  0.61304867  0.35554498  1
  C  C557  1  0.93990875  0.61529709  0.38795721  1
  C  C558  1  0.88213275  0.69818394  0.19914889  1
  C  C559  1  0.95455461  0.71803191  0.07781690  1
  C  C560  1  0.99046403  0.73380197  0.30731902  1
  C  C561  1  0.93878936  0.73463403  0.34080326  1
  C  C562  1  0.83723978  0.60653746  0.49611605  1
  C  C563  1  0.94273609  0.68089069  0.00184515  1
  C  C564  1  0.93760080  0.60715920  0.01060967  1
  O  O565  1  0.61284590  0.68814649  0.67415218  1
  C  C566  1  0.59826105  0.66253646  0.60428233  1
  H  H567  1  0.70250415  0.63761258  0.60649128  1
  O  O568  1  0.56809878  0.67075508  0.83558467  1
  C  C569  1  0.55794563  0.67461152  0.91803522  1
  O  O570  1  0.65501523  0.59176140  0.87686572  1
  Cu  Cu571  1  0.62844852  0.64431104  0.78425686  1
  O  O572  1  0.55011352  0.66781160  0.58338324  1
  C  C573  1  0.62709431  0.62480776  0.54250459  1
  C  C574  1  0.67903707  0.61375538  0.55656709  1
  C  C575  1  0.54782341  0.60673976  0.96529823  1
  O  O576  1  0.55802703  0.73036822  0.95636249  1
  O  O577  1  0.70598435  0.70001396  0.76616834  1
  C  C578  1  0.53603523  0.54557362  0.91753786  1
  Cu  Cu579  1  0.73302760  0.71810520  0.87196413  1
  C  C580  1  0.68689373  0.54234166  0.87392080  1
  H  H581  1  0.53948945  0.55402433  0.84966955  1
  Cu  Cu582  1  0.50373007  0.72905849  0.62707632  1
  H  H583  1  0.71825483  0.72439900  0.71428058  1
  O  O584  1  0.72941310  0.55325331  0.83343530  1
  H  H585  1  0.74241633  0.56052273  0.50605906  1
  H  H586  1  0.98595451  0.52194589  0.82640340  1
  C  C587  1  0.93381749  0.71056265  0.91631499  1
  O  O588  1  0.75875905  0.73327911  0.98358873  1
  C  C589  1  0.82065896  0.72955256  0.50300575  1
  C  C590  1  0.97048118  0.73331512  0.69971506  1
  H  H591  1  0.84548073  0.58828976  0.76180937  1
  H  H592  1  0.96644200  0.63214481  0.52851327  1
  H  H593  1  0.92457141  0.67901281  0.86175434  1
  C  C594  1  0.97316421  0.65304415  0.59173247  1
  O  O595  1  0.84430915  0.59419331  0.82622898  1
  C  C596  1  0.89999320  0.54707719  0.59712174  1
  O  O597  1  0.79747380  0.62963101  0.98886253  1
  C  C598  1  0.87422815  0.60552966  0.56375946  1
  H  H599  1  0.80554535  0.68243322  0.63427822  1
  O  O600  1  0.92535626  0.57082977  0.94386268  1
  H  H601  1  0.92657328  0.54779546  0.65016534  1
  Cu  Cu602  1  0.86062007  0.53147254  0.91309655  1
  C  C603  1  0.81456102  0.72795015  0.59435385  1
  H  H604  1  0.88297006  0.65159230  0.60191676  1
  Cu  Cu605  1  0.78110578  0.60340403  0.88650168  1
  C  C606  1  0.95158803  0.71889897  0.62218247  1
  C  C607  1  0.59916090  0.80635980  0.23462120  1
  N  N608  1  0.63767108  0.85359668  0.20627739  1
  C  C609  1  0.64437974  0.91084319  0.34960744  1
  C  C610  1  0.66619964  0.89135072  0.26818462  1
  C  C611  1  0.64443103  0.86613838  0.12094668  1
  H  H612  1  0.60585883  0.89463417  0.36704177  1
  H  H613  1  0.52654644  0.86356009  0.39916192  1
  C  C614  1  0.66844791  0.93065612  0.09044913  1
  C  C615  1  0.63231388  0.81385390  0.05751730  1
  C  C616  1  0.52357595  0.91333428  0.42805282  1
  C  C617  1  0.55249731  0.79679247  0.19063538  1
  H  H618  1  0.54678507  0.82946775  0.13274178  1
  C  C619  1  0.71624150  0.91601286  0.24450420  1
  C  C620  1  0.66986176  0.95852470  0.40222594  1
  H  H621  1  0.56982786  0.92467727  0.18449821  1
  O  O622  1  0.54238742  0.95265980  0.18734675  1
  H  H623  1  0.68086335  0.97322000  0.13304591  1
  H  H624  1  0.64248388  0.78468301  0.35618991  1
  H  H625  1  0.73319419  0.90042294  0.18391825  1
  C  C626  1  0.71773953  0.98186298  0.37786943  1
  C  C627  1  0.60895199  0.77287131  0.31689788  1
  H  H628  1  0.50476906  0.95333832  0.30614440  1
  C  C629  1  0.51175412  0.96713501  0.37379697  1
  H  H630  1  0.65202612  0.98048528  0.46010731  1
  H  H631  1  0.71043395  0.79929324  0.30296008  1
  C  C632  1  0.68005450  0.94240329  0.00499429  1
  C  C633  1  0.74228967  0.96018344  0.29782156  1
  H  H634  1  0.61612456  0.76416819  0.08439809  1
  H  H635  1  0.74674991  0.76444323  0.43626186  1
  C  C636  1  0.51327822  0.75129300  0.21916046  1
  C  C637  1  0.89152668  0.97668368  0.32291454  1
  H  H638  1  0.91145084  0.99451753  0.07589626  1
  C  C639  1  0.83279837  0.96135626  0.09026679  1
  C  C640  1  0.94901943  0.98096718  0.10049017  1
  H  H641  1  0.82887552  0.85636729  0.23309952  1
  C  C642  1  0.90960413  0.85260361  0.34084615  1
  H  H643  1  0.78407500  0.82626903  0.09569420  1
  C  C644  1  0.92436854  0.86786459  0.43022948  1
  C  C645  1  0.95834616  0.78878062  0.06857033  1
  C  C646  1  0.92204868  0.93278938  0.46129266  1
  N  N647  1  0.90836106  0.78741478  0.30450864  1
  C  C648  1  0.87613639  0.76533668  0.23636842  1
  C  C649  1  0.80954563  0.78837173  0.12716887  1
  H  H650  1  0.82608423  0.91381682  0.12770165  1
  H  H651  1  0.98651514  0.82118154  0.25991011  1
  H  H652  1  0.78066660  0.98272408  0.28459845  1
  H  H653  1  0.93929425  0.83015129  0.47323021  1
  C  C654  1  0.83795653  0.80894324  0.19751518  1
  H  H655  1  0.83481577  0.90435994  0.47327763  1
  H  H656  1  0.83555517  0.79603443  0.38764489  1
  H  H657  1  0.96990686  0.81863744  0.12792892  1
  C  C658  1  0.82900821  0.79500278  0.45516055  1
  H  H659  1  0.88935911  0.90560882  0.22012612  1
  C  C660  1  0.97877118  0.93071762  0.05162275  1
  C  C661  1  0.89635887  0.91105808  0.28899842  1
  C  C662  1  0.90391338  0.98953751  0.41099831  1
  C  C663  1  0.85094076  0.95953895  0.00309857  1
  C  C664  1  0.67493434  0.89623991  0.85270660  1
  O  O665  1  0.65610339  0.85361729  0.79805214  1
  O  O666  1  0.69907897  0.94888513  0.82351871  1
  O  O667  1  0.54183825  0.88299009  0.65922409  1
  C  C668  1  0.66564660  0.88922835  0.94455373  1
  Cu  Cu669  1  0.59767286  0.86670321  0.72796512  1
  O  O670  1  0.55367617  0.81599574  0.79422574  1
  C  C671  1  0.53498308  0.86761728  0.57901813  1
  O  O672  1  0.53317439  0.80458592  0.55981219  1
  C  C673  1  0.53291699  0.99007331  0.55503024  1
  C  C674  1  0.53262412  0.92372179  0.51786731  1
  Cu  Cu675  1  0.50063530  0.86871829  0.75761931  1
  H  H676  1  0.63508195  0.78579942  0.92731464  1
  H  H677  1  0.55508562  0.77547650  0.83201837  1
  C  C678  1  0.64442921  0.82543803  0.97299538  1
  H  H679  1  0.69300140  0.99331511  0.98239063  1
  H  H680  1  0.54078952  0.99788091  0.62537304  1
  C  C681  1  0.92372359  0.96907190  0.76659545  1
  H  H682  1  0.93604476  0.94243010  0.52729528  1
  Cu  Cu683  1  0.76070976  0.94803751  0.76967520  1
  H  H684  1  0.90071000  0.96011266  0.71056470  1
  H  H685  1  0.86217131  0.90849728  0.97682297  1
  H  H686  1  0.92970479  0.80684337  0.85073370  1
  H  H687  1  0.89059862  0.88141097  0.83661493  1
  C  C688  1  0.82342754  0.85203495  0.59256602  1
  H  H689  1  0.80658876  0.78767925  0.70884267  1
  C  C690  1  0.81768081  0.78986035  0.63785368  1
  C  C691  1  0.93938338  0.78121136  0.91250238  1
  O  O692  1  0.81952964  0.91708404  0.72196814  1
  O  O693  1  0.78494780  0.77187767  0.82042960  1
  H  H694  1  0.80846898  0.78723456  0.86522954  1
  O  O695  1  0.82267249  0.97406960  0.60081759  1
  C  C696  1  0.91899116  0.92500699  0.83705357  1
  C  C697  1  0.95325078  0.93551268  0.90685896  1
  N  N698  1  0.95696767  0.89493420  0.98273642  1
  C  C699  1  0.95124002  0.82263725  0.98705693  1
  C  C700  1  0.82215470  0.91770715  0.63859582  1
  C  C701  1  0.83147722  0.85392877  0.50192710  1
  C  C702  1  0.98873020  0.99244765  0.90296598  1
  H  H703  1  0.92572426  0.75583701  0.58554130  1
