# generated using pymatgen
data_CuH11C18(NO2)2
_symmetry_space_group_name_H-M   'P 1'
_cell_length_a   20.91101179
_cell_length_b   6.93112037
_cell_length_c   9.02162058
_cell_angle_alpha   90.00000000
_cell_angle_beta   90.00000000
_cell_angle_gamma   90.00000000
_symmetry_Int_Tables_number   1
_chemical_formula_structural   CuH11C18(NO2)2
_chemical_formula_sum   'Cu4 H44 C72 N8 O16'
_cell_volume   1307.56427431
_cell_formula_units_Z   4
loop_
 _symmetry_equiv_pos_site_id
 _symmetry_equiv_pos_as_xyz
  1  'x, y, z'
loop_
 _atom_site_type_symbol
 _atom_site_label
 _atom_site_symmetry_multiplicity
 _atom_site_fract_x
 _atom_site_fract_y
 _atom_site_fract_z
 _atom_site_occupancy
  C  C0  1  0.18693554  0.04169624  0.42504801  1
  H  H1  1  0.10078195  0.27154257  0.14570247  1
  C  C2  1  0.08033304  0.36601461  0.05858222  1
  H  H3  1  0.03211217  0.14874823  0.36164194  1
  C  C4  1  0.01537601  0.38735012  0.02658244  1
  C  C5  1  0.23878101  0.04932874  0.32625866  1
  C  C6  1  0.22602304  0.02459333  0.17863189  1
  C  C7  1  0.00441600  0.08316171  0.27042617  1
  H  H8  1  0.16597126  0.49351016  0.23124875  1
  N  N9  1  0.08814814  0.46183325  0.46054455  1
  C  C10  1  0.20303575  0.49514533  0.14954136  1
  H  H11  1  0.07724608  0.28677003  0.62659161  1
  C  C12  1  0.19377401  0.06207935  0.59004632  1
  O  O13  1  0.14943269  0.01136769  0.66276825  1
  C  C14  1  0.04803693  0.35339520  0.53842985  1
  H  H15  1  0.23032654  0.43819544  0.77192529  1
  N  N16  1  0.12205611  0.44843991  0.95976638  1
  O  O17  1  0.24742650  0.12163449  0.64779768  1
  C  C18  1  0.23674749  0.47009593  0.88757179  1
  C  C19  1  0.19032284  0.45023929  0.99615906  1
  C  C20  1  0.02168754  0.89424524  0.06147907  1
  H  H21  1  0.10250844  0.64584014  0.30091056  1
  C  C22  1  0.06152921  0.56908170  0.35306370  1
  O  O23  1  0.23836036  0.59073448  0.44104898  1
  N  N24  1  0.04616791  0.98275687  0.18249056  1
  C  C25  1  0.16510199  0.97395864  0.12023433  1
  H  H26  1  0.06190009  0.80869529  0.01034501  1
  C  C27  1  0.12605490  0.98629726  0.37687196  1
  H  H28  1  0.08719831  0.95823644  0.45876074  1
  C  C29  1  0.11470975  0.98093008  0.22349694  1
  H  H30  1  0.00482649  0.83439603  0.47640890  1
  H  H31  1  0.02412594  0.66140231  0.70751437  1
  H  H32  1  0.14171688  0.61001566  0.77900128  1
  C  C33  1  0.03650027  0.57656581  0.80276848  1
  C  C34  1  0.10080179  0.55566737  0.84159776  1
  H  H35  1  0.16208033  0.95754455  0.99807076  1
  O  O36  1  0.46896355  0.48779660  0.41549967  1
  H  H37  1  0.28673695  0.09079249  0.36087784  1
  O  O38  1  0.33517762  0.08533809  0.10829597  1
  C  C39  1  0.28039840  0.03292406  0.07403503  1
  Cu  Cu40  1  0.39859750  0.10171502  0.95594333  1
  O  O41  1  0.37144919  0.02612691  0.61359373  1
  O  O42  1  0.26340756  0.00000397  0.93984530  1
  C  C43  1  0.42926998  0.05820807  0.65247891  1
  O  O44  1  0.44489066  0.12227225  0.77719867  1
  Cu  Cu45  1  0.31349632  0.00406235  0.76301251  1
  C  C46  1  0.48111451  0.03095492  0.54600875  1
  C  C47  1  0.26256840  0.54137374  0.19094463  1
  C  C48  1  0.28053148  0.59087432  0.35241305  1
  O  O49  1  0.34148153  0.60800719  0.38814591  1
  C  C50  1  0.31119539  0.55435811  0.08651997  1
  H  H51  1  0.35909355  0.59132470  0.12541948  1
  O  O52  1  0.45098544  0.92130678  0.07751278  1
  C  C53  1  0.46442505  0.97745121  0.40130177  1
  H  H54  1  0.41602679  0.94075357  0.36271979  1
  Cu  Cu55  1  0.47390199  0.54474697  0.74475283  1
  O  O56  1  0.40839214  0.57214253  0.87464438  1
  C  C57  1  0.29904168  0.51781480  0.93594325  1
  C  C58  1  0.35357294  0.52713808  0.82962127  1
  O  O59  1  0.34320094  0.50927044  0.69154540  1
  Cu  Cu60  1  0.39733768  0.50093826  0.53565243  1
  H  H61  1  0.69655313  0.15117137  0.18672670  1
  C  C62  1  0.73530402  0.06869181  0.14296766  1
  H  H63  1  0.50750873  0.47392329  0.17638884  1
  C  C64  1  0.60500243  0.46796263  0.09804954  1
  C  C65  1  0.55904538  0.47610381  0.20676868  1
  C  C66  1  0.67155827  0.47567456  0.13419757  1
  C  C67  1  0.57919834  0.48841986  0.35642762  1
  H  H68  1  0.70858237  0.44810206  0.04978899  1
  C  C69  1  0.68804491  0.49954927  0.28438698  1
  C  C70  1  0.68651700  0.08691703  0.65075839  1
  H  H71  1  0.64343041  0.15337993  0.70474542  1
  O  O72  1  0.52678273  0.44299752  0.90677168  1
  C  C73  1  0.58825872  0.45310477  0.93476120  1
  C  C74  1  0.74840264  0.07363536  0.69947347  1
  O  O75  1  0.62708966  0.46817758  0.84018730  1
  H  H76  1  0.73783400  0.30544576  0.50108153  1
  H  H77  1  0.55192188  0.04401408  0.71473761  1
  C  C78  1  0.54412039  0.03129010  0.59011836  1
  H  H79  1  0.68404018  0.82428810  0.33730297  1
  C  C80  1  0.70458417  0.89596060  0.43576582  1
  H  H81  1  0.61681272  0.96616050  0.25497759  1
  O  O82  1  0.55408468  0.92862177  0.05738765  1
  C  C83  1  0.52502957  0.50609722  0.46085260  1
  C  C84  1  0.57907184  0.97622447  0.34165955  1
  C  C85  1  0.51551399  0.95829239  0.29973272  1
  C  C86  1  0.50889366  0.94459596  0.13588315  1
  C  C87  1  0.64291309  0.51013687  0.40177468  1
  C  C88  1  0.59544506  0.99914219  0.49066792  1
  N  N89  1  0.71077408  0.96115039  0.03118856  1
  H  H90  1  0.72101416  0.75238502  0.88430727  1
  N  N91  1  0.66410763  0.99677993  0.52538639  1
  O  O92  1  0.53604368  0.51242027  0.59932613  1
  H  H93  1  0.65459914  0.53514513  0.51724019  1
  H  H94  1  0.98036265  0.32073173  0.09499753  1
  H  H95  1  0.81981060  0.18805102  0.25193270  1
  C  C96  1  0.95482696  0.45898542  0.39689825  1
  C  C97  1  0.80043541  0.08180071  0.17102257  1
  C  C98  1  0.77862485  0.37293552  0.44414983  1
  H  H99  1  0.91003680  0.15570350  0.32481473  1
  H  H100  1  0.89899313  0.33324940  0.07721035  1
  C  C101  1  0.93938138  0.08037083  0.24689471  1
  C  C102  1  0.84402664  0.36545308  0.47740730  1
  C  C103  1  0.88415211  0.45964123  0.37174309  1
  N  N104  1  0.75580953  0.48313528  0.32791551  1
  H  H105  1  0.86113053  0.30239038  0.58018156  1
  C  C106  1  0.81317854  0.37319657  0.94124650  1
  C  C107  1  0.95856247  0.06310098  0.75782065  1
  H  H108  1  0.86222950  0.10565810  0.84730627  1
  H  H109  1  0.94975125  0.25044415  0.57853327  1
  C  C110  1  0.89115587  0.05375094  0.76055836  1
  H  H111  1  0.76218799  0.14136955  0.80707029  1
  C  C112  1  0.98170036  0.34516097  0.51410282  1
  H  H113  1  0.98541269  0.14700275  0.84328341  1
  C  C114  1  0.92009665  0.48515307  0.87379995  1
  C  C115  1  0.87886346  0.38607286  0.97310374  1
  C  C116  1  0.99115328  0.49571899  0.90074846  1
  N  N117  1  0.78775916  0.44146157  0.81439769  1
  H  H118  1  0.77690120  0.27866538  0.98902893  1
  C  C119  1  0.85983011  0.56139733  0.24657756  1
  C  C120  1  0.79530418  0.57440106  0.23279488  1
  C  C121  1  0.76961690  0.89075902  0.46941634  1
  H  H122  1  0.88985745  0.61987479  0.16035254  1
  H  H123  1  0.88634451  0.81605297  0.41463742  1
  H  H124  1  0.76973432  0.65841666  0.14984259  1
  H  H125  1  0.97770070  0.65446237  0.21804554  1
  H  H126  1  0.80551601  0.80363997  0.40251353  1
  C  C127  1  0.95669330  0.88295265  0.02363187  1
  C  C128  1  0.91435987  0.97901744  0.11798438  1
  C  C129  1  0.99675212  0.57444765  0.31173050  1
  C  C130  1  0.84445542  0.96256148  0.08503781  1
  H  H131  1  0.79287312  0.60115146  0.64260988  1
  H  H132  1  0.94096023  0.81364484  0.92217536  1
  C  C133  1  0.82337260  0.55075491  0.73333798  1
  C  C134  1  0.81734085  0.84549112  0.97435883  1
  C  C135  1  0.96705520  0.89471559  0.55144781  1
  H  H136  1  0.84718204  0.73923758  0.91535394  1
  H  H137  1  0.92006756  0.61201197  0.64814599  1
  C  C138  1  0.89018753  0.55959188  0.74182279  1
  C  C139  1  0.90424386  0.87901208  0.52180504  1
  C  C140  1  0.75146485  0.85268931  0.95381300  1
  N  N141  1  0.99859402  0.97424550  0.66740079  1
  C  C142  1  0.79252851  0.97322620  0.60409370  1
  C  C143  1  0.86255908  0.97103105  0.63373863  1
