# generated using pymatgen
data_Cu12H32C58N32Cl
_symmetry_space_group_name_H-M   'P 1'
_cell_length_a   16.22448639
_cell_length_b   12.95497754
_cell_length_c   6.92094839
_cell_angle_alpha   90.00000000
_cell_angle_beta   90.00000000
_cell_angle_gamma   90.00000000
_symmetry_Int_Tables_number   1
_chemical_formula_structural   Cu12H32C58N32Cl
_chemical_formula_sum   'Cu12 H32 C58 N32 Cl1'
_cell_volume   1454.69930862
_cell_formula_units_Z   1
loop_
 _symmetry_equiv_pos_site_id
 _symmetry_equiv_pos_as_xyz
  1  'x, y, z'
loop_
 _atom_site_type_symbol
 _atom_site_label
 _atom_site_symmetry_multiplicity
 _atom_site_fract_x
 _atom_site_fract_y
 _atom_site_fract_z
 _atom_site_occupancy
  C  C0  1  0.35661086  0.03645153  0.12975499  1
  C  C1  1  0.41977295  0.05942950  0.26214896  1
  N  N2  1  0.13111143  0.14591192  0.28103600  1
  N  N3  1  0.16346381  0.06182314  0.27352179  1
  Cu  Cu4  1  0.01385229  0.14178785  0.35655042  1
  H  H5  1  0.45816189  0.12801357  0.24308062  1
  H  H6  1  0.33586383  0.10022761  0.02925993  1
  C  C7  1  0.49231654  0.18767373  0.65137885  1
  Cu  Cu8  1  0.00249229  0.02868332  0.94426560  1
  H  H9  1  0.44445949  0.19980013  0.53980176  1
  C  C10  1  0.28431757  0.42058719  0.21794013  1
  N  N11  1  0.32246978  0.33132872  0.21035842  1
  Cu  Cu12  1  0.46597248  0.45324436  0.16820845  1
  N  N13  1  0.39950170  0.32092484  0.37743545  1
  H  H14  1  0.03737308  0.36393121  0.10848701  1
  C  C15  1  0.20930172  0.44143782  0.07358395  1
  H  H16  1  0.07530097  0.49006641  0.36544917  1
  C  C17  1  0.02885385  0.43346033  0.39535021  1
  N  N18  1  0.31593677  0.47615191  0.36251473  1
  N  N19  1  0.39780374  0.40035554  0.47143285  1
  C  C20  1  0.00814200  0.36525522  0.25393587  1
  H  H21  1  0.18134169  0.28193050  0.00670818  1
  H  H22  1  0.07322074  0.33134120  0.77079511  1
  C  C23  1  0.10358193  0.39183483  0.84591396  1
  C  C24  1  0.16465325  0.36214562  0.98135608  1
  C  C25  1  0.08389664  0.49714340  0.81839979  1
  H  H26  1  0.49124746  0.35549041  0.73598818  1
  C  C27  1  0.09285034  0.72817983  0.35118574  1
  C  C28  1  0.19456957  0.54539673  0.02685667  1
  H  H29  1  0.23092144  0.61284363  0.09093202  1
  N  N30  1  0.26835792  0.60907971  0.41908095  1
  H  H31  1  0.02560509  0.54273040  0.10930763  1
  N  N32  1  0.48062304  0.57787297  0.04754509  1
  H  H33  1  0.15243382  0.74509766  0.27195610  1
  C  C34  1  0.08674504  0.64671410  0.48010171  1
  Cu  Cu35  1  0.38415857  0.56708201  0.90579769  1
  N  N36  1  0.28919730  0.71668269  0.81798703  1
  C  C37  1  0.12978706  0.57676746  0.90893286  1
  N  N38  1  0.33480533  0.69395134  0.95202403  1
  H  H39  1  0.11798679  0.65886571  0.88743377  1
  N  N40  1  0.29610568  0.62151251  0.57651339  1
  H  H41  1  0.14058339  0.60316067  0.52712087  1
  C  C42  1  0.01125680  0.62255802  0.57344540  1
  C  C43  1  0.00362106  0.52911015  0.70690132  1
  C  C44  1  0.31970137  0.93712695  0.11990120  1
  Cu  Cu45  1  0.09157526  0.95098497  0.36538917  1
  H  H46  1  0.30427326  0.79649681  0.29030392  1
  C  C47  1  0.33462861  0.87100205  0.27995997  1
  C  C48  1  0.37914568  0.90105097  0.44034856  1
  N  N49  1  0.03915377  0.93390615  0.12562875  1
  C  C50  1  0.00638471  0.84185230  0.11191116  1
  C  C51  1  0.43278509  0.99114638  0.42113873  1
  H  H52  1  0.43180162  0.78798676  0.05494153  1
  C  C53  1  0.01557904  0.76463923  0.27756911  1
  C  C54  1  0.46579374  0.89432065  0.81486128  1
  H  H55  1  0.41546546  0.94898451  0.83366124  1
  N  N56  1  0.15297012  0.86212356  0.68945468  1
  C  C57  1  0.25280706  0.91746554  0.96570244  1
  C  C58  1  0.47278774  0.80568914  0.92943777  1
  N  N59  1  0.22197755  0.83098891  0.87371583  1
  N  N60  1  0.14465581  0.95464261  0.71018421  1
  H  H61  1  0.37850767  0.85368717  0.57467572  1
  N  N62  1  0.21793563  0.99884709  0.87225994  1
  H  H63  1  0.63957661  0.14631123  0.08771360  1
  N  N64  1  0.96519245  0.14312955  0.11367300  1
  C  C65  1  0.91398015  0.22471118  0.10937165  1
  C  C66  1  0.66688112  0.02734283  0.40709692  1
  N  N67  1  0.85162611  0.24938411  0.00080505  1
  H  H68  1  0.78880439  0.01015104  0.33282710  1
  H  H69  1  0.85623577  0.23873320  0.49977045  1
  C  C70  1  0.73026947  0.00216968  0.27570923  1
  C  C71  1  0.59550010  0.08385999  0.80967895  1
  N  N72  1  0.81398047  0.10155536  0.62761990  1
  N  N73  1  0.76392161  0.17026596  0.60856209  1
  C  C74  1  0.53878258  0.09709357  0.65593907  1
  Cu  Cu75  1  0.73489998  0.24764463  0.84232848  1
  Cu  Cu76  1  0.84831374  0.09757951  0.89761747  1
  C  C77  1  0.60585414  0.16032692  0.95796906  1
  Cl  Cl78  1  0.97638555  0.01325615  0.54711918  1
  H  H79  1  0.68482995  0.07001051  0.54108786  1
  H  H80  1  0.63017295  0.00794153  0.80897659  1
  C  C81  1  0.51549186  0.00221937  0.52772741  1
  N  N82  1  0.57726591  0.41207613  0.15314768  1
  Cu  Cu83  1  0.80345630  0.36048996  0.11295456  1
  C  C84  1  0.94334083  0.29358952  0.28815108  1
  N  N85  1  0.74141373  0.41689928  0.39726320  1
  N  N86  1  0.69808589  0.32840618  0.04729140  1
  C  C87  1  0.61579338  0.34066207  0.05249797  1
  C  C88  1  0.91109492  0.28894049  0.47366431  1
  C  C89  1  0.98723796  0.43123822  0.57645025  1
  N  N90  1  0.67877078  0.41303699  0.59827647  1
  H  H91  1  0.89913925  0.35699821  0.78273651  1
  C  C92  1  0.93185790  0.35410465  0.63363954  1
  C  C93  1  0.51111404  0.27505753  0.77399301  1
  C  C94  1  0.57039884  0.26067947  0.92303280  1
  Cu  Cu95  1  0.62032044  0.51130083  0.29932337  1
  C  C96  1  0.81737578  0.53465932  0.17654921  1
  Cu  Cu97  1  0.71450594  0.70515653  0.14665422  1
  C  C98  1  0.95968874  0.53957094  0.06012680  1
  C  C99  1  0.90114018  0.54615480  0.21142536  1
  N  N100  1  0.61186273  0.63217526  0.16320050  1
  H  H101  1  0.91959217  0.55383358  0.36423536  1
  C  C102  1  0.54550687  0.64173349  0.05224981  1
  C  C103  1  0.76253819  0.51559472  0.35820644  1
  N  N104  1  0.72582907  0.57849474  0.49052276  1
  H  H105  1  0.82707025  0.50416428  0.67404824  1
  H  H106  1  0.64084639  0.68104705  0.71756132  1
  H  H107  1  0.72694017  0.50223010  0.94184948  1
  C  C108  1  0.93687913  0.68295690  0.54037881  1
  C  C109  1  0.84909052  0.51395025  0.82447425  1
  H  H110  1  0.87262591  0.66474596  0.59239260  1
  N  N111  1  0.75229024  0.71512489  0.52867789  1
  C  C112  1  0.93602189  0.52848423  0.86712312  1
  C  C113  1  0.79294498  0.51803770  0.97539304  1
  C  C114  1  0.53852466  0.73499586  0.91449373  1
  C  C115  1  0.59063605  0.73991430  0.75021460  1
  N  N116  1  0.66983843  0.50265607  0.64687995  1
  Cu  Cu117  1  0.88736973  0.70238039  0.98726140  1
  C  C118  1  0.57063533  0.94818916  0.18635889  1
  C  C119  1  0.63245877  0.90761472  0.06354545  1
  C  C120  1  0.58554620  0.99330845  0.37281870  1
  C  C121  1  0.71266653  0.94153538  0.11007080  1
  H  H122  1  0.50614521  0.92685400  0.15188634  1
  H  H123  1  0.88712140  0.80230954  0.34630320  1
  N  N124  1  0.74166924  0.76876675  0.39067760  1
  N  N125  1  0.79432837  0.78933606  0.01248989  1
  H  H126  1  0.61866136  0.81969977  0.47996740  1
  C  C127  1  0.94208019  0.75055415  0.38703504  1
  Cu  Cu128  1  0.92496459  0.88179982  0.73709672  1
  N  N129  1  0.83853040  0.95161345  0.89256501  1
  C  C130  1  0.52010801  0.89982098  0.65017143  1
  C  C131  1  0.57939524  0.82080754  0.61203797  1
  N  N132  1  0.96031933  0.81162626  0.96575450  1
  H  H133  1  0.62262309  0.86634159  0.93019421  1
  C  C134  1  0.78469358  0.89422721  0.98739125  1
