# generated using pymatgen
data_Zn4H18C36O13
_symmetry_space_group_name_H-M   'P 1'
_cell_length_a   19.62283307
_cell_length_b   22.94752701
_cell_length_c   15.96299650
_cell_angle_alpha   90.00000000
_cell_angle_beta   90.00000000
_cell_angle_gamma   90.00000000
_symmetry_Int_Tables_number   1
_chemical_formula_structural   Zn4H18C36O13
_chemical_formula_sum   'Zn32 H144 C288 O104'
_cell_volume   7188.06536163
_cell_formula_units_Z   8
loop_
 _symmetry_equiv_pos_site_id
 _symmetry_equiv_pos_as_xyz
  1  'x, y, z'
loop_
 _atom_site_type_symbol
 _atom_site_label
 _atom_site_symmetry_multiplicity
 _atom_site_fract_x
 _atom_site_fract_y
 _atom_site_fract_z
 _atom_site_occupancy
  C  C0  1  0.42678863  0.29751120  0.10773673  1
  C  C1  1  0.38866841  0.24597934  0.11871817  1
  H  H2  1  0.23323146  0.17685884  0.09356792  1
  Zn  Zn3  1  0.23720824  0.03299328  0.00364239  1
  H  H4  1  0.20731301  0.24262500  0.21472666  1
  C  C5  1  0.38740589  0.13940712  0.16879566  1
  H  H6  1  0.41390719  0.10405422  0.19942106  1
  H  H7  1  0.40371910  0.34036638  0.08840792  1
  C  C8  1  0.19922869  0.41243192  0.17120193  1
  C  C9  1  0.00432860  0.18645531  0.00995680  1
  O  O10  1  0.14500628  0.22250294  0.06969756  1
  C  C11  1  0.13619924  0.27703103  0.06801479  1
  C  C12  1  0.42304310  0.19221122  0.15344488  1
  C  C13  1  0.06008677  0.09181663  0.03622475  1
  H  H14  1  0.14713149  0.38649277  0.05705833  1
  C  C15  1  0.28494967  0.18565483  0.11499331  1
  C  C16  1  0.20116327  0.47496661  0.16789146  1
  O  O17  1  0.32314345  0.04221834  0.20851308  1
  H  H18  1  0.28418023  0.28016135  0.08719716  1
  C  C19  1  0.31969144  0.13733011  0.14532213  1
  H  H20  1  0.02084125  0.23284512  0.20773021  1
  C  C21  1  0.31567439  0.24118493  0.10262807  1
  C  C22  1  0.17583904  0.31259511  0.13273406  1
  C  C23  1  0.17403156  0.37123069  0.11271674  1
  C  C24  1  0.20882185  0.29110937  0.20416999  1
  O  O25  1  0.05639979  0.04368942  0.08187335  1
  O  O26  1  0.23405249  0.06318354  0.13110637  1
  C  C27  1  0.29051479  0.07775736  0.16662549  1
  C  C28  1  0.00437052  0.13336847  0.05126228  1
  H  H29  1  0.46426993  0.22977326  0.02069280  1
  C  C30  1  0.02686700  0.27714637  0.23154699  1
  O  O31  1  0.09805331  0.30179456  0.01745171  1
  Zn  Zn32  1  0.13657708  0.04923238  0.18764527  1
  C  C33  1  0.01617609  0.38071746  0.20595179  1
  C  C34  1  0.49656685  0.29437754  0.12554470  1
  C  C35  1  0.01067370  0.48676610  0.18788011  1
  H  H36  1  0.33821489  0.23277262  0.23984643  1
  C  C37  1  0.49362622  0.18897622  0.16048696  1
  C  C38  1  0.23421283  0.38896512  0.24862000  1
  O  O39  1  0.32027494  0.41869179  0.00743291  1
  C  C40  1  0.08458817  0.44778131  0.29902871  1
  H  H41  1  0.40608335  0.17402310  0.38088795  1
  C  C42  1  0.40302735  0.32202274  0.32674921  1
  C  C43  1  0.43897178  0.13894552  0.35861485  1
  C  C44  1  0.10050191  0.23731092  0.34720236  1
  C  C45  1  0.36957705  0.27447127  0.36073287  1
  C  C46  1  0.06929080  0.28938435  0.30027851  1
  H  H47  1  0.03054741  0.21905240  0.47047137  1
  C  C48  1  0.46913146  0.41263579  0.34874583  1
  O  O49  1  0.13062197  0.24927717  0.41355368  1
  H  H50  1  0.27193325  0.15588825  0.30436998  1
  Zn  Zn51  1  0.03144772  0.13216407  0.29308184  1
  C  C52  1  0.44725886  0.34690557  0.47001403  1
  C  C53  1  0.26811572  0.42203516  0.30895612  1
  Zn  Zn54  1  0.31887520  0.03730553  0.35304980  1
  H  H55  1  0.30095578  0.40133324  0.35749485  1
  C  C56  1  0.33545453  0.23091695  0.30865289  1
  C  C57  1  0.08920130  0.34421197  0.32670333  1
  C  C58  1  0.33566799  0.21669605  0.49091790  1
  C  C59  1  0.45757974  0.03585454  0.32091615  1
  C  C60  1  0.23778962  0.32682075  0.26131520  1
  C  C61  1  0.29891802  0.18650538  0.34629874  1
  H  H62  1  0.25847145  0.31153308  0.32159919  1
  C  C63  1  0.43839451  0.35814183  0.38285571  1
  C  C64  1  0.25354297  0.13292759  0.46993737  1
  O  O65  1  0.10493925  0.18609737  0.31651918  1
  O  O66  1  0.22594073  0.09834039  0.41891326  1
  H  H67  1  0.12168053  0.35354406  0.38077726  1
  Zn  Zn68  1  0.12790571  0.06067039  0.41211919  1
  O  O69  1  0.49382193  0.45075851  0.40210728  1
  C  C70  1  0.41614985  0.08032355  0.34747594  1
  C  C71  1  0.37045668  0.26339692  0.45416485  1
  O  O72  1  0.08481216  0.05585199  0.29881534  1
  C  C73  1  0.29925486  0.18066627  0.43581052  1
  C  C74  1  0.25927799  0.48313736  0.30711099  1
  O  O75  1  0.11740600  0.44495063  0.47709496  1
  H  H76  1  0.12207001  0.45525703  0.35146191  1
  C  C77  1  0.06675434  0.39007377  0.27483973  1
  O  O78  1  0.32377917  0.49285821  0.43423430  1
  O  O79  1  0.46813028  0.42182717  0.27228049  1
  H  H80  1  0.40510590  0.32896588  0.26012779  1
  C  C81  1  0.06134649  0.49387265  0.25175081  1
  C  C82  1  0.43882165  0.17421236  0.73987279  1
  H  H83  1  0.34553304  0.44397886  0.55914063  1
  C  C84  1  0.27351086  0.27278144  0.68892836  1
  C  C85  1  0.43312812  0.36162998  0.70511585  1
  C  C86  1  0.30964885  0.36313363  0.61778932  1
  C  C87  1  0.24375182  0.36399265  0.57701741  1
  H  H88  1  0.11794104  0.45509245  0.69425947  1
  H  H89  1  0.45908704  0.17143703  0.67413249  1
  H  H90  1  0.33624128  0.20605417  0.55715290  1
  C  C91  1  0.35422112  0.41044783  0.60332106  1
  O  O92  1  0.11517821  0.09286909  0.69833079  1
  H  H93  1  0.06087819  0.19958135  0.67223540  1
  H  H94  1  0.23175667  0.39939220  0.53076034  1
  C  C95  1  0.45952548  0.45982212  0.64090007  1
  H  H96  1  0.41087430  0.29648651  0.57619501  1
  O  O97  1  0.24529600  0.13034258  0.54691772  1
  H  H98  1  0.14616932  0.32115081  0.56394493  1
  Zn  Zn99  1  0.14759686  0.14928296  0.60446318  1
  C  C100  1  0.19736411  0.32095735  0.59401457  1
  C  C101  1  0.01743268  0.10800155  0.53204585  1
  H  H102  1  0.35239371  0.12069258  0.71572766  1
  C  C103  1  0.20892822  0.27213295  0.64812360  1
  C  C104  1  0.41480671  0.40889143  0.65378420  1
  H  H105  1  0.28154306  0.23893346  0.73194945  1
  O  O106  1  0.16235958  0.23626085  0.66141306  1
  C  C107  1  0.32612404  0.31442474  0.67587747  1
  H  H108  1  0.00510356  0.29658024  0.63916705  1
  C  C109  1  0.02825472  0.19352534  0.72667131  1
  C  C110  1  0.39137466  0.31433850  0.71651227  1
  O  O111  1  0.03523152  0.39476321  0.55442864  1
  O  O112  1  0.07964391  0.11887355  0.50957390  1
  C  C113  1  0.07596606  0.41999518  0.51562167  1
  H  H114  1  0.48005345  0.36488346  0.73935031  1
  C  C115  1  0.15052213  0.43011173  0.74067756  1
  C  C116  1  0.40845834  0.30262270  0.50718341  1
  H  H117  1  0.47947919  0.37530534  0.51287382  1
  O  O118  1  0.27042657  0.10873142  0.93677703  1
  H  H119  1  0.00528915  0.29153857  0.94471312  1
  C  C120  1  0.03051364  0.14439037  0.77737205  1
  C  C121  1  0.08198335  0.09693362  0.76497028  1
  H  H122  1  0.31198841  0.23855694  0.94279281  1
  C  C123  1  0.35648163  0.14309961  0.84888632  1
  C  C124  1  0.17670946  0.34326390  0.82102368  1
  C  C125  1  0.38386157  0.17149812  0.91956039  1
  C  C126  1  0.24683975  0.36123719  0.83977364  1
  O  O127  1  0.41395814  0.41896430  0.91805905  1
  C  C128  1  0.28899159  0.11313823  0.86221018  1
  O  O129  1  0.08878132  0.05211562  0.81622103  1
  H  H130  1  0.34830201  0.33760848  0.88436519  1
  Zn  Zn131  1  0.15780942  0.17286573  0.93641673  1
  C  C132  1  0.44145635  0.20347073  0.89074742  1
  C  C133  1  0.29618513  0.32365483  0.87395996  1
  C  C134  1  0.15912150  0.28459016  0.84869641  1
  Zn  Zn135  1  0.19377375  0.01565833  0.81688203  1
  C  C136  1  0.20613614  0.25214973  0.89498801  1
  C  C137  1  0.26386111  0.41721503  0.80632061  1
  H  H138  1  0.36929217  0.16340815  0.98700448  1
  H  H139  1  0.31568477  0.43550514  0.81288997  1
  C  C140  1  0.27589871  0.26751249  0.90813182  1
  H  H141  1  0.23865430  0.47845093  0.93245937  1
  H  H142  1  0.10462191  0.26949733  0.83169647  1
  C  C143  1  0.47869373  0.23738942  0.95265363  1
  C  C144  1  0.36597103  0.41776173  0.95959739  1
  O  O145  1  0.25495131  0.09433728  0.80067652  1
  C  C146  1  0.47006270  0.20861452  0.80583379  1
  C  C147  1  0.21823215  0.44771830  0.76040986  1
  C  C148  1  0.13059557  0.37420604  0.76937848  1
  H  H149  1  0.07961645  0.35565873  0.75642350  1
  H  H150  1  0.04732435  0.19408321  0.96393656  1
  C  C151  1  0.01333441  0.43834905  0.92816262  1
  O  O152  1  0.06244242  0.41895928  0.92523386  1
  O  O153  1  0.10758903  0.10006115  0.98806710  1
  H  H154  1  0.40708924  0.28305832  0.76379222  1
  C  C155  1  0.38214294  0.14268897  0.76476746  1
  H  H156  1  0.02777112  0.74260688  0.12089421  1
  C  C157  1  0.41173351  0.55925719  0.15330622  1
  O  O158  1  0.07744305  0.83521811  0.12637872  1
  C  C159  1  0.24988077  0.55024281  0.02658111  1
  C  C160  1  0.02106620  0.73673045  0.05378405  1
  H  H161  1  0.33001248  0.63799925  0.21386259  1
  C  C162  1  0.31862957  0.54122863  0.04755112  1
  C  C163  1  0.40799652  0.87590477  0.08696846  1
  H  H164  1  0.32371959  0.72294719  0.14608960  1
  C  C165  1  0.41951523  0.77351286  0.13632694  1
  O  O166  1  0.22057816  0.90462093  0.08230246  1
  C  C167  1  0.33661712  0.86767909  0.09640833  1
  Zn  Zn168  1  0.15292323  0.88688399  0.19041516  1
  C  C169  1  0.06095866  0.83751903  0.05151937  1
  C  C170  1  0.24341672  0.63060242  0.13532283  1
  C  C171  1  0.14436693  0.61008300  0.04039812  1
  O  O172  1  0.12371786  0.96580457  0.21763967  1
  C  C173  1  0.28549604  0.91355795  0.07868800  1
  C  C174  1  0.34267291  0.57267051  0.11584468  1
  O  O175  1  0.43001327  0.58680243  0.21863327  1
  C  C176  1  0.34803824  0.76495093  0.13614584  1
  C  C177  1  0.30753098  0.61506942  0.16164638  1
  C  C178  1  0.30843323  0.81548973  0.12330733  1
  H  H179  1  0.45046798  0.68494219  0.17423261  1
  Zn  Zn180  1  0.00001267  0.96575395  0.03337568  1
  H  H181  1  0.43079267  0.91690738  0.06992370  1
  C  C182  1  0.45244971  0.83257468  0.11612064  1
  O  O183  1  0.06824178  0.88446035  0.00807877  1
  H  H184  1  0.21254065  0.66465245  0.16314400  1
  O  O185  1  0.44764463  0.52231683  0.11666646  1
  H  H186  1  0.25196400  0.81042702  0.12949887  1
  C  C187  1  0.46938944  0.72983127  0.16194370  1
  C  C188  1  0.21505665  0.59984975  0.06675733  1
  O  O189  1  0.30765465  0.96076381  0.05336095  1
  H  H190  1  0.11642318  0.64361781  0.07715114  1
  C  C191  1  0.03429428  0.78526243  0.00613121  1
  H  H192  1  0.17270988  0.50042286  0.11841161  1
  H  H193  1  0.35205250  0.50783301  0.01729721  1
  C  C194  1  0.00588245  0.68301066  0.01230361  1
  O  O195  1  0.01106562  0.58194674  0.14112935  1
  H  H196  1  0.21906118  0.55202670  0.23652974  1
  C  C197  1  0.22430660  0.50498584  0.23837966  1
  H  H198  1  0.45899821  0.75290616  0.00621499  1
  O  O199  1  0.07369116  0.87461087  0.37305946  1
  H  H200  1  0.14521593  0.71288027  0.34004604  1
  H  H201  1  0.45317838  0.73224199  0.31590537  1
  C  C202  1  0.08427961  0.61088055  0.37638280  1
  H  H203  1  0.43738438  0.99106512  0.31141926  1
  C  C204  1  0.33702096  0.87815208  0.33394331  1
  C  C205  1  0.29316739  0.84131392  0.46578192  1
  C  C206  1  0.05252667  0.66907366  0.37376582  1
  C  C207  1  0.05813381  0.77281485  0.35948452  1
  C  C208  1  0.38366986  0.78646029  0.38809981  1
  H  H209  1  0.13896218  0.60975434  0.36614122  1
  O  O210  1  0.14984000  0.82931576  0.29895142  1
  C  C211  1  0.29448037  0.88451338  0.40373560  1
  C  C212  1  0.08870236  0.71899035  0.35466737  1
  C  C213  1  0.09777245  0.82834225  0.34289490  1
  C  C214  1  0.42226592  0.69283355  0.43587754  1
  O  O215  1  0.45877246  0.59721711  0.47996361  1
  H  H216  1  0.07061573  0.51975208  0.38092535  1
  C  C217  1  0.33684769  0.79123825  0.46134776  1
  O  O218  1  0.24348718  0.97286387  0.36625590  1
  H  H219  1  0.34257825  0.91528113  0.29120404  1
  C  C220  1  0.37929948  0.83041665  0.32516146  1
  C  C221  1  0.04440513  0.56192285  0.38392107  1
  Zn  Zn222  1  0.05129045  0.96878032  0.30407452  1
  O  O223  1  0.05890909  0.98941969  0.42617928  1
  C  C224  1  0.42485586  0.73701465  0.37630335  1
  C  C225  1  0.24611370  0.93399653  0.42311921  1
  Zn  Zn226  1  0.42114789  0.51091558  0.46112727  1
  O  O227  1  0.27833529  0.57158919  0.38243358  1
  C  C228  1  0.46581589  0.63897631  0.42954361  1
  H  H229  1  0.41136225  0.82784586  0.27239049  1
  C  C230  1  0.28747676  0.51906054  0.37777993  1
  Zn  Zn231  1  0.09978251  0.92899129  0.49770164  1
  O  O232  1  0.20723817  0.93569490  0.48502859  1
  H  H233  1  0.08153984  0.53657449  0.26168455  1
  O  O234  1  0.06735016  0.91202576  0.62076604  1
  Zn  Zn235  1  0.37272491  0.57005479  0.65454365  1
  C  C236  1  0.24526523  0.71642331  0.70437299  1
  H  H237  1  0.02527600  0.71694836  0.52164745  1
  C  C238  1  0.34259976  0.65185152  0.68209241  1
  H  H239  1  0.26143287  0.84641526  0.52315218  1
  C  C240  1  0.36875045  0.75245556  0.71416279  1
  H  H241  1  0.40651095  0.78447728  0.72027838  1
  C  C242  1  0.39315747  0.69474471  0.70084242  1
  O  O243  1  0.20334223  0.53923003  0.69121632  1
  C  C244  1  0.17398811  0.73050185  0.71105380  1
  C  C245  1  0.27022156  0.65780790  0.68577489  1
  H  H246  1  0.05900597  0.82341527  0.54469218  1
  H  H247  1  0.44796173  0.68647841  0.69664589  1
  H  H248  1  0.31111099  0.74076847  0.57884809  1
  H  H249  1  0.23345766  0.62251184  0.67166008  1
  H  H250  1  0.37297109  0.65897883  0.54821483  1
  C  C251  1  0.02583939  0.79987833  0.58858715  1
  H  H252  1  0.13489278  0.70129317  0.69293070  1
  C  C253  1  0.01653006  0.89550794  0.66092052  1
  C  C254  1  0.33619766  0.74435803  0.51875160  1
  C  C255  1  0.00579362  0.74214622  0.57450728  1
  C  C256  1  0.37906799  0.69643297  0.50681926  1
  C  C257  1  0.29743954  0.76326786  0.71718984  1
  C  C258  1  0.27157424  0.81970708  0.73163720  1
  C  C259  1  0.15307524  0.78762836  0.72842433  1
  H  H260  1  0.30472421  0.85605656  0.74366201  1
  O  O261  1  0.43924287  0.50515979  0.60036557  1
  O  O262  1  0.30402936  0.51984269  0.73336282  1
  H  H263  1  0.09940114  0.79828383  0.73957837  1
  C  C264  1  0.20295016  0.83142489  0.73912432  1
  C  C265  1  0.24339693  0.50450972  0.71791285  1
  C  C266  1  0.49185806  0.61348920  0.93598141  1
  C  C267  1  0.37191100  0.62929042  0.93000510  1
  C  C268  1  0.33056892  0.73020910  0.96277224  1
  C  C269  1  0.45020598  0.70931029  0.97788482  1
  C  C270  1  0.15366246  0.53400948  0.93044728  1
  C  C271  1  0.18088987  0.89382638  0.76865469  1
  C  C272  1  0.20809357  0.75791584  0.93799514  1
  C  C273  1  0.25389779  0.65971044  0.89753673  1
  C  C274  1  0.02389287  0.79019737  0.91674913  1
  C  C275  1  0.30383360  0.61870258  0.89741265  1
  H  H276  1  0.42374726  0.54616101  0.89838535  1
  C  C277  1  0.11738387  0.57814311  0.97422508  1
  O  O278  1  0.15322637  0.74323324  0.91180119  1
  C  C279  1  0.26677659  0.71528816  0.93533885  1
  C  C280  1  0.38446864  0.69056154  0.95490039  1
  H  H281  1  0.28806247  0.57498566  0.87847299  1
  C  C282  1  0.42721214  0.59165886  0.91732391  1
  H  H283  1  0.20245118  0.64974089  0.87065549  1
  H  H284  1  0.03448199  0.83242427  0.88774332  1
  H  H285  1  0.33942969  0.77715180  0.97866385  1
  O  O286  1  0.12909265  0.90358949  0.81197513  1
  O  O287  1  0.18667582  0.97773927  0.93515884  1
  H  H288  1  0.12622888  0.50916613  0.87992164  1
  O  O289  1  0.22500088  0.81010189  0.95664014  1
  Zn  Zn290  1  0.17472661  0.89533587  0.94888758  1
  C  C291  1  0.00164662  0.74480051  0.87311272  1
  Zn  Zn292  1  0.03856739  0.97455580  0.80446149  1
  C  C293  1  0.21863228  0.51849281  0.95976630  1
  Zn  Zn294  1  0.01052748  0.60281698  0.94719624  1
  O  O295  1  0.22114074  0.93482551  0.75205434  1
  O  O296  1  0.60278942  0.34292544  0.12747999  1
  Zn  Zn297  1  0.53134572  0.47543330  0.17716667  1
  O  O298  1  0.76055031  0.35040230  0.13460261  1
  H  H299  1  0.94753250  0.42581011  0.12059643  1
  H  H300  1  0.94618153  0.07531044  0.14092126  1
  C  C301  1  0.89552716  0.15747315  0.11812645  1
  H  H302  1  0.97467461  0.31183145  0.12950671  1
  H  H303  1  0.58655483  0.24103159  0.14757734  1
  H  H304  1  0.84820140  0.14626675  0.15361268  1
  Zn  Zn305  1  0.67538172  0.40338018  0.09363501  1
  O  O306  1  0.63028797  0.47596061  0.12828224  1
  H  H307  1  0.52106871  0.14625960  0.16892923  1
  C  C308  1  0.94795977  0.11803882  0.10660892  1
  H  H309  1  0.80995968  0.25726523  0.14517091  1
  C  C310  1  0.91327350  0.32731577  0.00671949  1
  C  C311  1  0.85976095  0.31540089  0.06584432  1
  C  C312  1  0.85461463  0.26174583  0.10467546  1
  C  C313  1  0.73748038  0.09134651  0.23240144  1
  C  C314  1  0.95534136  0.22964059  0.02110092  1
  C  C315  1  0.52949438  0.24087779  0.14739116  1
  C  C316  1  0.81370360  0.36171146  0.09538378  1
  C  C317  1  0.53865912  0.34817946  0.11462471  1
  O  O318  1  0.82579328  0.41118422  0.06682327  1
  C  C319  1  0.90146625  0.21572045  0.08523299  1
  C  C320  1  0.98696328  0.43067749  0.16814127  1
  O  O321  1  0.51106974  0.39375281  0.09452142  1
  O  O322  1  0.75232426  0.13988810  0.20599697  1
  C  C323  1  0.99988337  0.32205924  0.18540668  1
  O  O324  1  0.77918223  0.04812855  0.23490110  1
  H  H325  1  0.97805252  0.32836243  0.45437444  1
  C  C326  1  0.87013510  0.30340458  0.30297541  1
  C  C327  1  0.76116558  0.19705757  0.42452811  1
  C  C328  1  0.82340200  0.34817942  0.29094704  1
  O  O329  1  0.65795609  0.39415883  0.35268084  1
  O  O330  1  0.87067087  0.04409379  0.40018263  1
  O  O331  1  0.73288932  0.44361815  0.28303557  1
  C  C332  1  0.89521657  0.08775999  0.36379319  1
  C  C333  1  0.73967146  0.29663140  0.36725821  1
  C  C334  1  0.53122416  0.04997544  0.30175307  1
  C  C335  1  0.62562604  0.12272943  0.28731121  1
  C  C336  1  0.89041174  0.19668650  0.33960680  1
  C  C337  1  0.85430714  0.25050467  0.34558873  1
  O  O338  1  0.94383189  0.08341028  0.31333795  1
  Zn  Zn339  1  0.60104527  0.47652876  0.38167903  1
  H  H340  1  0.87826300  0.38783569  0.46509870  1
  C  C341  1  0.71207536  0.39701999  0.31515477  1
  C  C342  1  0.80171903  0.14813213  0.42176428  1
  C  C343  1  0.78527105  0.24791426  0.38185488  1
  C  C344  1  0.75814342  0.34754080  0.32952944  1
  H  H345  1  0.69117831  0.29063334  0.40058129  1
  C  C346  1  0.86424353  0.14647061  0.37395379  1
  C  C347  1  0.55597500  0.10917560  0.31507440  1
  H  H348  1  0.93568819  0.19669827  0.29969486  1
  H  H349  1  0.70829424  0.19370576  0.45447270  1
  O  O350  1  0.95150914  0.46567591  0.39649601  1
  H  H351  1  0.64753810  0.16420476  0.28906878  1
  H  H352  1  0.78986190  0.10911849  0.45694237  1
  C  C353  1  0.50805342  0.15390364  0.33841550  1
  C  C354  1  0.87725100  0.34613118  0.49566597  1
  H  H355  1  0.52737477  0.19872903  0.34364721  1
  C  C356  1  0.93367825  0.31153033  0.48768350  1
  H  H357  1  0.83393400  0.38701546  0.25513622  1
  C  C358  1  0.66230305  0.07535258  0.26375103  1
  H  H359  1  0.92122955  0.30785838  0.27493614  1
  O  O360  1  0.61799283  0.20335256  0.49747580  1
  C  C361  1  0.56995668  0.00327726  0.27229299  1
  C  C362  1  0.63925671  0.01878919  0.25405069  1
  C  C363  1  0.82596319  0.33667871  0.55713123  1
  C  C364  1  0.92856650  0.33263180  0.71648437  1
  H  H365  1  0.78645530  0.27815959  0.64697579  1
  H  H366  1  0.92708411  0.37395832  0.68328070  1
  O  O367  1  0.71869437  0.36471747  0.61107534  1
  C  C368  1  0.76682236  0.37797289  0.56392249  1
  O  O369  1  0.99916471  0.05913294  0.55387090  1
  C  C370  1  0.86906801  0.18615958  0.62794761  1
  O  O371  1  0.82235655  0.03402865  0.66292629  1
  C  C372  1  0.97569245  0.29111159  0.69634167  1
  C  C373  1  0.96761567  0.15716451  0.54249587  1
  H  H374  1  0.53862058  0.25329072  0.71800076  1
  H  H375  1  0.82759267  0.17927729  0.67185087  1
  Zn  Zn376  1  0.69788218  0.40626818  0.73067884  1
  C  C377  1  0.82768150  0.28631622  0.60251108  1
  C  C378  1  0.91344316  0.14521361  0.59967942  1
  H  H379  1  0.90930261  0.10039339  0.62672655  1
  O  O380  1  0.51269900  0.45917073  0.68278013  1
  C  C381  1  0.87921185  0.24356787  0.58844780  1
  C  C382  1  0.93588579  0.25533450  0.53080623  1
  O  O383  1  0.51699310  0.20304344  0.57900869  1
  C  C384  1  0.56766048  0.20316703  0.53614800  1
  C  C385  1  0.98190423  0.21157204  0.50776323  1
  C  C386  1  0.98079037  0.23818168  0.74595293  1
  O  O387  1  0.76695450  0.42340095  0.51918156  1
  C  C388  1  0.88551374  0.32635371  0.78786497  1
  O  O389  1  0.81088065  0.40967860  0.75960175  1
  H  H390  1  0.91693493  0.36992032  0.97965080  1
  Zn  Zn391  1  0.64099538  0.45730350  0.88730743  1
  C  C392  1  0.54481215  0.28501853  0.84725564  1
  O  O393  1  0.79979804  0.36346054  0.87738109  1
  H  H394  1  0.84948853  0.26922777  0.88249687  1
  O  O395  1  0.60871964  0.36613119  0.89028537  1
  Zn  Zn396  1  0.78149148  0.44462714  0.94812274  1
  C  C397  1  0.88844134  0.27464319  0.83375798  1
  C  C398  1  0.93111961  0.17205885  0.85943709  1
  C  C399  1  0.93313932  0.22856922  0.81417152  1
  C  C400  1  0.59140680  0.33487613  0.82802556  1
  H  H401  1  0.89116816  0.16413875  0.90859337  1
  C  C402  1  0.82914408  0.36956648  0.80835129  1
  C  C403  1  0.52819965  0.27610092  0.93141839  1
  C  C404  1  0.52078775  0.24783951  0.78415477  1
  O  O405  1  0.69000125  0.45858644  0.99440932  1
  H  H406  1  0.97941324  0.09070336  0.87852928  1
  O  O407  1  0.87695309  0.01332436  0.87957364  1
  H  H408  1  0.55358698  0.30249294  0.97753548  1
  C  C409  1  0.97723489  0.13172771  0.83562838  1
  O  O410  1  0.67025392  0.48200233  0.77293146  1
  C  C411  1  0.96095112  0.28583534  0.98507613  1
  O  O412  1  0.61024273  0.34624649  0.75576587  1
  C  C413  1  0.85653206  0.65736493  0.20559936  1
  O  O414  1  0.94014078  0.96043401  0.14001321  1
  C  C415  1  0.52351774  0.84168172  0.11904142  1
  C  C416  1  0.84159880  0.87172282  0.10593683  1
  C  C417  1  0.89248479  0.86436662  0.16560300  1
  C  C418  1  0.98594803  0.53239846  0.13084319  1
  C  C419  1  0.91803108  0.58760989  0.01798701  1
  H  H420  1  0.82725395  0.91623962  0.08064551  1
  H  H421  1  0.94478699  0.65287366  0.12195456  1
  C  C422  1  0.81621696  0.76859310  0.12978372  1
  C  C423  1  0.97366913  0.63663858  0.06631681  1
  O  O424  1  0.76348504  0.56624525  0.17246868  1
  O  O425  1  0.72341301  0.61515465  0.06359316  1
  H  H426  1  0.86911012  0.58646622  0.05557402  1
  C  C427  1  0.80516500  0.66400137  0.14665498  1
  C  C428  1  0.76167811  0.61103559  0.12888425  1
  Zn  Zn429  1  0.66232267  0.53733575  0.04607585  1
  H  H430  1  0.76288205  0.82507576  0.04255484  1
  C  C431  1  0.87480874  0.76099450  0.19246163  1
  O  O432  1  0.94306553  0.52387378  0.07260056  1
  C  C433  1  0.78236340  0.71686952  0.11145430  1
  C  C434  1  0.80065188  0.82272123  0.09175183  1
  H  H435  1  0.74099695  0.71872470  0.06353272  1
  O  O436  1  0.57345015  0.64459548  0.17567447  1
  C  C437  1  0.53806524  0.74539182  0.16703465  1
  C  C438  1  0.59098672  0.69772907  0.18325727  1
  H  H439  1  0.62453442  0.80285595  0.13775798  1
  C  C440  1  0.56906405  0.79909021  0.14218226  1
  C  C441  1  0.93726338  0.91539190  0.18748371  1
  O  O442  1  0.64561112  0.71081856  0.21435189  1
  H  H443  1  0.54569493  0.88502041  0.10248633  1
  C  C444  1  0.91286633  0.81254631  0.20540749  1
  Zn  Zn445  1  0.68064767  0.52067241  0.22682569  1
  C  C446  1  0.89473676  0.70681566  0.22844642  1
  H  H447  1  0.68000396  0.98723222  0.24288663  1
  H  H448  1  0.96152025  0.81076970  0.24005615  1
  H  H449  1  0.87020645  0.61358791  0.23317906  1
  C  C450  1  0.67668483  0.89735523  0.37201020  1
  O  O451  1  0.66254386  0.89648679  0.29725878  1
  O  O452  1  0.58655334  0.51736718  0.27030624  1
  C  C453  1  0.69775072  0.58091669  0.43735934  1
  C  C454  1  0.97798378  0.66915103  0.39494868  1
  H  H455  1  0.96520574  0.81967872  0.38700459  1
  C  C456  1  0.97377331  0.56778496  0.39778550  1
  C  C457  1  0.74484417  0.72191539  0.33493283  1
  C  C458  1  0.92836393  0.51325126  0.40691657  1
  C  C459  1  0.80477950  0.80801305  0.38232779  1
  O  O460  1  0.70325886  0.94338630  0.40462326  1
  C  C461  1  0.73282283  0.63691840  0.42930793  1
  O  O462  1  0.51524249  0.64052552  0.38125627  1
  C  C463  1  0.87333072  0.89497663  0.42400297  1
  H  H464  1  0.57629128  0.71765079  0.42762755  1
  C  C465  1  0.93823263  0.61756575  0.40350320  1
  C  C466  1  0.72218933  0.66557336  0.35181763  1
  C  C467  1  0.77273459  0.66057001  0.49315815  1
  H  H468  1  0.89584625  0.73240032  0.41244083  1
  H  H469  1  0.88298188  0.61814036  0.41701042  1
  O  O470  1  0.84928132  0.92393383  0.36385520  1
  H  H471  1  0.78520919  0.83216742  0.32994760  1
  C  C472  1  0.78600918  0.74975213  0.39898024  1
  O  O473  1  0.65498657  0.55931720  0.38843882  1
  H  H474  1  0.73108522  0.74164594  0.27665743  1
  H  H475  1  0.69013552  0.64045880  0.30599405  1
  C  C476  1  0.85169873  0.83205302  0.43792777  1
  C  C477  1  0.66436902  0.84342439  0.43015434  1
  C  C478  1  0.61822637  0.80114926  0.40041032  1
  C  C479  1  0.80172424  0.71528262  0.47585386  1
  C  C480  1  0.95070219  0.72713334  0.40380606  1
  C  C481  1  0.61008533  0.75274920  0.44971508  1
  H  H482  1  0.59892956  0.80136899  0.33342537  1
  Zn  Zn483  1  0.78250658  0.99493076  0.35270406  1
  H  H484  1  0.93677361  0.70281845  0.27545185  1
  C  C485  1  0.98958099  0.77662905  0.38464701  1
  Zn  Zn486  1  0.96358803  0.99420035  0.45892706  1
  O  O487  1  0.86334786  0.52240402  0.41187673  1
  Zn  Zn488  1  0.53340459  0.58843558  0.27435511  1
  O  O489  1  0.91006486  0.91366801  0.48064544  1
  O  O490  1  0.96999936  0.91426812  0.25425959  1
  H  H491  1  0.54960867  0.95727397  0.27159505  1
  C  C492  1  0.84030648  0.74767008  0.53650828  1
  C  C493  1  0.86700903  0.80242796  0.51680429  1
  H  H494  1  0.96179567  0.63061744  0.56482803  1
  O  O495  1  0.98637577  0.92293836  0.71696640  1
  C  C496  1  0.93593857  0.65565825  0.61362826  1
  H  H497  1  0.84372241  0.72965639  0.59810156  1
  H  H498  1  0.89520950  0.82320875  0.56782004  1
  H  H499  1  0.75799200  0.81873189  0.67119075  1
  O  O500  1  0.77069882  0.94449799  0.68121244  1
  C  C501  1  0.85304928  0.57943678  0.63860235  1
  O  O502  1  0.79562492  0.56030494  0.66090351  1
  C  C503  1  0.94548185  0.80950945  0.70487788  1
  C  C504  1  0.68686757  0.79229795  0.56487348  1
  C  C505  1  0.62541978  0.69552257  0.57954442  1
  H  H506  1  0.91627993  0.83828010  0.74864019  1
  O  O507  1  0.88426760  0.55204675  0.58336906  1
  C  C508  1  0.87785056  0.63750424  0.65325130  1
  C  C509  1  0.65852392  0.69294671  0.65575895  1
  H  H510  1  0.59445069  0.65849054  0.55377436  1
  C  C511  1  0.64467951  0.64046780  0.71007086  1
  C  C512  1  0.92375030  0.75273370  0.69171911  1
  C  C513  1  0.71838781  0.78503149  0.64606913  1
  C  C514  1  0.63948595  0.74600817  0.53173749  1
  C  C515  1  0.70305752  0.73589477  0.68968390  1
  H  H516  1  0.77767912  0.63808016  0.55542736  1
  C  C517  1  0.95873030  0.71369896  0.63050060  1
  O  O518  1  0.60168823  0.60367949  0.69338277  1
  C  C519  1  0.84399544  0.67253685  0.71457421  1
  H  H520  1  0.73318798  0.87470592  0.52299303  1
  C  C521  1  0.86558746  0.72782339  0.73298008  1
  Zn  Zn522  1  0.59468327  0.51127794  0.72237320  1
  C  C523  1  0.79537296  0.99022052  0.67091250  1
  C  C524  1  0.99584344  0.83257044  0.65212348  1
  Zn  Zn525  1  0.80887934  0.50744584  0.51727695  1
  H  H526  1  0.79775904  0.65425008  0.74089081  1
  C  C527  1  0.69476130  0.84028972  0.51092734  1
  O  O528  1  0.71461728  0.55106228  0.50208349  1
  H  H529  1  0.66699782  0.88289985  0.81814335  1
  C  C530  1  0.86816520  0.90896216  0.89824273  1
  C  C531  1  0.87063929  0.80650410  0.93808770  1
  H  H532  1  0.61568005  0.78566215  0.81525832  1
  C  C533  1  0.76580189  0.84965865  0.86641914  1
  C  C534  1  0.80402775  0.90287484  0.86457182  1
  H  H535  1  0.79046379  0.70378203  0.93990549  1
  C  C536  1  0.84946147  0.56638763  0.88830353  1
  C  C537  1  0.80382737  0.80072280  0.90450377  1
  C  C538  1  0.70080306  0.74313158  0.88601770  1
  H  H539  1  0.89851062  0.77063342  0.97005445  1
  C  C540  1  0.90947346  0.59712081  0.92545341  1
  Zn  Zn541  1  0.65478000  0.66791337  0.90303890  1
  O  O542  1  0.80190524  0.59294097  0.85167753  1
  C  C543  1  0.66615671  0.78958992  0.84285696  1
  O  O544  1  0.97018515  0.96975919  0.91445695  1
  H  H545  1  0.83848159  0.75972797  0.77523160  1
  C  C546  1  0.76747955  0.74538580  0.91546966  1
  O  O547  1  0.55010750  0.52725172  0.89031051  1
  C  C548  1  0.69654666  0.84670945  0.84156967  1
  C  C549  1  0.55350044  0.57527957  0.92496926  1
  C  C550  1  0.90192633  0.96917821  0.89970152  1
  H  H551  1  0.91139274  0.65569292  0.81712397  1
  H  H552  1  0.95394696  0.86805731  0.95927703  1
  O  O553  1  0.61255785  0.59158941  0.95774624  1
  C  C554  1  0.93750257  0.64256002  0.87494120  1
  H  H555  1  0.78328125  0.93829695  0.82572164  1
  C  C556  1  0.99006469  0.68966789  0.92052340  1
  Zn  Zn557  1  0.73604983  0.54423172  0.77081615  1
  H  H558  1  0.55701784  0.68204432  0.97446106  1
  C  C559  1  0.90217534  0.86093821  0.93559744  1
  C  C560  1  0.50275837  0.66991455  0.96733227  1
  H  H561  1  0.99217593  0.74547358  0.80530046  1
  O  O562  1  0.85128319  0.51232944  0.89833751  1
  O  O563  1  0.50721476  0.79070497  0.79226561  1
  C  C564  1  0.51435220  0.81391662  0.85575141  1
  O  O565  1  0.52399045  0.83720325  0.91941687  1
  H  H566  1  0.72764311  0.72407716  0.75020214  1
  O  O567  1  0.68398003  0.63695290  0.77491235  1
