# generated using pymatgen
data_Zn2H9C19(NO4)2
_symmetry_space_group_name_H-M   'P 1'
_cell_length_a   16.46517772
_cell_length_b   19.43409568
_cell_length_c   12.89030892
_cell_angle_alpha   90.00000000
_cell_angle_beta   90.00000000
_cell_angle_gamma   90.00000000
_symmetry_Int_Tables_number   1
_chemical_formula_structural   Zn2H9C19(NO4)2
_chemical_formula_sum   'Zn16 H72 C152 N16 O64'
_cell_volume   4124.71631689
_cell_formula_units_Z   8
loop_
 _symmetry_equiv_pos_site_id
 _symmetry_equiv_pos_as_xyz
  1  'x, y, z'
loop_
 _atom_site_type_symbol
 _atom_site_label
 _atom_site_symmetry_multiplicity
 _atom_site_fract_x
 _atom_site_fract_y
 _atom_site_fract_z
 _atom_site_occupancy
  Zn  Zn0  1  0.24197421  0.38416671  0.17590265  1
  O  O1  1  0.17858993  0.19689629  0.18717764  1
  O  O2  1  0.28561283  0.44044834  0.03719416  1
  O  O3  1  0.41145736  0.14971473  0.08414871  1
  C  C4  1  0.49014707  0.36063400  0.19159163  1
  O  O5  1  0.07137713  0.03286795  0.09670546  1
  O  O6  1  0.12210278  0.41875142  0.20182382  1
  C  C7  1  0.46895271  0.16452577  0.15001721  1
  O  O8  1  0.44945086  0.47656709  0.23607030  1
  Zn  Zn9  1  0.14436885  0.09741797  0.19552686  1
  C  C10  1  0.18668655  0.23817308  0.11374693  1
  H  H11  1  0.39376713  0.28044754  0.19644611  1
  O  O12  1  0.24037950  0.28436163  0.12008728  1
  C  C13  1  0.45689592  0.29384344  0.17983973  1
  C  C14  1  0.42961541  0.41576265  0.22641711  1
  C  C15  1  0.09065684  0.47742723  0.21407501  1
  H  H16  1  0.05909281  0.14833168  0.07303710  1
  C  C17  1  0.13792187  0.23931792  0.01863846  1
  C  C18  1  0.07210347  0.18921132  0.01621982  1
  O  O19  1  0.49375812  0.11819359  0.20376099  1
  C  C20  1  0.07677390  0.00297415  0.01432709  1
  C  C21  1  0.00075827  0.48516120  0.19633812  1
  H  H22  1  0.21854755  0.45834584  0.45793708  1
  O  O23  1  0.11114655  0.04295069  0.32769633  1
  C  C24  1  0.35140543  0.45079868  0.45143888  1
  C  C25  1  0.27157062  0.42589080  0.45008283  1
  H  H26  1  0.48357879  0.42843053  0.45076933  1
  C  C27  1  0.41921928  0.40841660  0.45334810  1
  C  C28  1  0.40691661  0.33617497  0.45910362  1
  C  C29  1  0.26092429  0.35498165  0.45842827  1
  O  O30  1  0.11807316  0.38708307  0.44553821  1
  C  C31  1  0.16954371  0.33831925  0.45867085  1
  H  H32  1  0.43572329  0.18819325  0.42253303  1
  C  C33  1  0.32739355  0.31138504  0.46067470  1
  H  H34  1  0.48897751  0.07945287  0.39204792  1
  O  O35  1  0.15113318  0.27670923  0.46291169  1
  H  H36  1  0.31427958  0.25669916  0.46375454  1
  C  C37  1  0.48179795  0.22328542  0.45954333  1
  N  N38  1  0.47756010  0.29365450  0.47149328  1
  O  O39  1  0.36139632  0.39424973  0.25088644  1
  O  O40  1  0.10594986  0.34269746  0.68085185  1
  O  O41  1  0.07037606  0.15765947  0.66217235  1
  C  C42  1  0.18819339  0.09378481  0.64791727  1
  Zn  Zn43  1  0.06068873  0.25472719  0.58400026  1
  C  C44  1  0.31059151  0.14023727  0.72836838  1
  Zn  Zn45  1  0.07277374  0.44919141  0.56799948  1
  C  C46  1  0.31182945  0.02866538  0.63745593  1
  C  C47  1  0.23051994  0.03628772  0.60495974  1
  O  O48  1  0.06144940  0.07202303  0.55315045  1
  C  C49  1  0.10051292  0.10556978  0.62200244  1
  O  O50  1  0.36277799  0.41740048  0.68126522  1
  C  C51  1  0.43649416  0.43302850  0.68673520  1
  C  C52  1  0.22363502  0.14240757  0.71475116  1
  C  C53  1  0.35364459  0.08378506  0.68895879  1
  H  H54  1  0.41821464  0.07983100  0.70420658  1
  H  H55  1  0.19117087  0.18482346  0.74435101  1
  O  O56  1  0.49050205  0.39095202  0.68443154  1
  O  O57  1  0.35965216  0.37264678  0.94270432  1
  C  C58  1  0.10774459  0.29408385  0.85229687  1
  O  O59  1  0.03132606  0.01701490  0.93659657  1
  O  O60  1  0.18377654  0.39061542  0.79594360  1
  C  C61  1  0.34689379  0.42698790  0.98948106  1
  C  C62  1  0.13285313  0.34473932  0.77213775  1
  C  C63  1  0.48998821  0.44370697  0.95375456  1
  C  C64  1  0.04575756  0.24353006  0.83895494  1
  C  C65  1  0.34149034  0.20342360  0.78743505  1
  O  O66  1  0.41496335  0.20585345  0.81291723  1
  O  O67  1  0.29351701  0.24550516  0.82495081  1
  C  C68  1  0.03099132  0.19456503  0.92011699  1
  C  C69  1  0.15083752  0.29040922  0.94252022  1
  H  H70  1  0.19785437  0.32939685  0.95525940  1
  Zn  Zn71  1  0.31017975  0.35448323  0.80089220  1
  Zn  Zn72  1  0.44914623  0.14241699  0.93771639  1
  C  C73  1  0.41668937  0.47614199  0.98841949  1
  H  H74  1  0.48982390  0.38982493  0.92978749  1
  H  H75  1  0.01145138  0.24753895  0.76611363  1
  O  O76  1  0.45946667  0.01648624  0.99680614  1
  H  H77  1  0.39722247  0.81080072  0.06696357  1
  H  H78  1  0.36571661  0.67262812  0.13117828  1
  C  C79  1  0.25447821  0.89941668  0.09455554  1
  C  C80  1  0.32114003  0.91412141  0.18291139  1
  C  C81  1  0.41492664  0.69384742  0.08705413  1
  O  O82  1  0.39452599  0.91588592  0.16139179  1
  C  C83  1  0.42857190  0.75917117  0.04988151  1
  H  H84  1  0.46499252  0.89289846  0.02012021  1
  C  C85  1  0.19736010  0.95030709  0.08724485  1
  Zn  Zn86  1  0.48327223  0.99828915  0.16392912  1
  O  O87  1  0.12376326  0.53115152  0.24180110  1
  C  C88  1  0.48592684  0.57961903  0.03650649  1
  H  H89  1  0.36064069  0.55997998  0.07398344  1
  H  H90  1  0.19915470  0.99775877  0.13755929  1
  H  H91  1  0.00263555  0.59383144  0.22502049  1
  C  C92  1  0.25057155  0.84137332  0.03160588  1
  H  H93  1  0.29433065  0.79906616  0.04161989  1
  N  N94  1  0.47745821  0.65415208  0.04592510  1
  C  C95  1  0.41486840  0.53920066  0.03927138  1
  C  C96  1  0.13464883  0.94365543  0.01342755  1
  O  O97  1  0.19783569  0.76364822  0.30435275  1
  C  C98  1  0.33854086  0.79929144  0.41589515  1
  Zn  Zn99  1  0.21401863  0.57728149  0.32451549  1
  C  C100  1  0.48231142  0.77821018  0.44304625  1
  Zn  Zn101  1  0.19393169  0.87014426  0.31111338  1
  O  O102  1  0.29958344  0.56422226  0.44646791  1
  C  C103  1  0.06717743  0.64621103  0.44298736  1
  O  O104  1  0.10002833  0.93031785  0.35377033  1
  C  C105  1  0.33510782  0.73945567  0.35768178  1
  C  C106  1  0.25801382  0.72210324  0.29992177  1
  C  C107  1  0.47856660  0.72324097  0.37156378  1
  C  C108  1  0.40148681  0.69810967  0.34005176  1
  C  C109  1  0.36192807  0.52735483  0.45190547  1
  O  O110  1  0.43161655  0.55223182  0.45063000  1
  H  H111  1  0.28126200  0.82580440  0.43533421  1
  O  O112  1  0.12085573  0.60116444  0.44387445  1
  C  C113  1  0.41318813  0.81885433  0.45822761  1
  O  O114  1  0.49181520  0.96789071  0.32840937  1
  O  O115  1  0.00823313  0.64213382  0.38179989  1
  H  H116  1  0.39363520  0.65354229  0.28856240  1
  C  C117  1  0.06858597  0.98820564  0.33340462  1
  O  O118  1  0.29767016  0.92084044  0.27407669  1
  O  O119  1  0.25020443  0.66641241  0.25200044  1
  H  H120  1  0.17518098  0.85295129  0.67895278  1
  C  C121  1  0.07269427  0.82331163  0.58037931  1
  C  C122  1  0.17252714  0.70903708  0.54029327  1
  C  C123  1  0.31557380  0.68351480  0.64990849  1
  C  C124  1  0.20212390  0.76153389  0.60508434  1
  C  C125  1  0.46904460  0.50680152  0.70762975  1
  C  C126  1  0.33035348  0.78770661  0.71538227  1
  N  N127  1  0.28187524  0.74759231  0.65582980  1
  C  C128  1  0.01971877  0.88450849  0.60131810  1
  C  C129  1  0.04493518  0.77078791  0.51721715  1
  C  C130  1  0.47417332  0.90038446  0.59110899  1
  C  C131  1  0.15062531  0.81639252  0.62856579  1
  H  H132  1  0.47101280  0.98765215  0.71084279  1
  O  O133  1  0.04563545  0.93933405  0.63980995  1
  C  C134  1  0.04745583  0.53890914  0.66126856  1
  H  H135  1  0.28925181  0.63815955  0.61191627  1
  N  N136  1  0.36692241  0.97301878  0.60250754  1
  C  C137  1  0.44386463  0.95824586  0.64146855  1
  C  C138  1  0.34812070  0.92237042  0.53733693  1
  C  C139  1  0.40867468  0.55553721  0.69555501  1
  H  H140  1  0.34536768  0.54583868  0.67149709  1
  C  C141  1  0.08335622  0.56852678  0.74736571  1
  N  N142  1  0.38543744  0.68125038  0.71184583  1
  C  C143  1  0.43914206  0.62192879  0.72093670  1
  N  N144  1  0.41229641  0.87918927  0.52681874  1
  H  H145  1  0.20979154  0.66054942  0.53161698  1
  H  H146  1  0.20126759  0.99249169  0.56106606  1
  H  H147  1  0.31931741  0.84316682  0.71878993  1
  H  H148  1  0.28610132  0.91971292  0.50644751  1
  C  C149  1  0.09386775  0.71079946  0.50030254  1
  C  C150  1  0.22695920  0.71569640  0.90002311  1
  H  H151  1  0.29113867  0.72656161  0.92282398  1
  H  H152  1  0.21836995  0.61408910  0.82695074  1
  H  H153  1  0.07403957  0.88568968  0.89236991  1
  N  N154  1  0.11155394  0.68180358  0.82481567  1
  H  H155  1  0.04836857  0.78068406  0.85894178  1
  C  C156  1  0.10227274  0.74765244  0.86256756  1
  N  N157  1  0.17002639  0.76954397  0.91302315  1
  C  C158  1  0.12484556  0.88719834  0.94797735  1
  C  C159  1  0.18590170  0.83535807  0.95814465  1
  C  C160  1  0.19065623  0.66313634  0.84631368  1
  H  H161  1  0.43268836  0.75270106  0.82370703  1
  C  C162  1  0.05646544  0.63720368  0.77198439  1
  H  H163  1  0.12960776  0.54515936  0.79245264  1
  N  N164  1  0.49632687  0.75950743  0.98490145  1
  C  C165  1  0.39264529  0.74487669  0.75326893  1
  H  H166  1  0.59409134  0.43447807  0.17435151  1
  H  H167  1  0.89814140  0.30101749  0.08135668  1
  O  O168  1  0.69767178  0.45647581  0.03306856  1
  H  H169  1  0.96497530  0.08753485  0.03456276  1
  H  H170  1  0.62988247  0.21058634  0.10805845  1
  C  C171  1  0.56947977  0.37849438  0.16955372  1
  N  N172  1  0.82201910  0.39157539  0.09475056  1
  O  O173  1  0.70858703  0.14149912  0.04205435  1
  N  N174  1  0.69981436  0.33776656  0.10953207  1
  C  C175  1  0.83638911  0.32455361  0.08240338  1
  C  C176  1  0.61959394  0.32250193  0.13260303  1
  C  C177  1  0.75943908  0.29173694  0.08998300  1
  C  C178  1  0.73484694  0.40731750  0.10780651  1
  C  C179  1  0.58740492  0.25374429  0.12771877  1
  H  H180  1  0.73386967  0.42873640  0.18856881  1
  C  C181  1  0.87700420  0.44359304  0.11972455  1
  H  H182  1  0.74538610  0.23640678  0.07845474  1
  C  C183  1  0.95714512  0.43226514  0.15509908  1
  H  H184  1  0.71788022  0.05131746  0.04909871  1
  H  H185  1  0.98901960  0.38246263  0.15712282  1
  C  C186  1  0.50876524  0.24042957  0.15527323  1
  C  C187  1  0.75906554  0.00267179  0.03682936  1
  H  H188  1  0.68095511  0.06105013  0.23720197  1
  C  C189  1  0.66871736  0.45620879  0.39984774  1
  N  N190  1  0.75775199  0.20319224  0.34039533  1
  C  C191  1  0.69022986  0.17132527  0.30057613  1
  H  H192  1  0.96408676  0.09726686  0.29244133  1
  C  C193  1  0.76296101  0.27498241  0.38168168  1
  C  C194  1  0.71150423  0.10226553  0.27818044  1
  H  H195  1  0.88178364  0.16999943  0.36250560  1
  H  H196  1  0.65867997  0.32492583  0.31602946  1
  C  C197  1  0.72807854  0.39731630  0.40948873  1
  C  C198  1  0.81841591  0.15783550  0.34397011  1
  C  C199  1  0.93431042  0.04728488  0.29877845  1
  C  C200  1  0.71181231  0.33291089  0.36446540  1
  N  N201  1  0.79077058  0.09614004  0.30633694  1
  H  H202  1  0.63138453  0.19847330  0.27934404  1
  C  C203  1  0.82748546  0.28137261  0.45012086  1
  C  C204  1  0.84740350  0.03765856  0.30133473  1
  O  O205  1  0.60099915  0.44604823  0.34970590  1
  C  C206  1  0.59362490  0.01860917  0.43752253  1
  C  C207  1  0.54994589  0.07791182  0.43138913  1
  C  C208  1  0.66725869  0.01021639  0.49187905  1
  H  H209  1  0.86496505  0.23763595  0.47284069  1
  C  C210  1  0.79798541  0.40581141  0.46517176  1
  C  C211  1  0.84632576  0.34749477  0.48663261  1
  H  H212  1  0.80957617  0.45708952  0.49899726  1
  C  C213  1  0.58878155  0.13295393  0.48826803  1
  N  N214  1  0.55907756  0.20262717  0.48743084  1
  C  C215  1  0.60525852  0.25780290  0.51851754  1
  C  C216  1  0.66548245  0.12803650  0.53402361  1
  H  H217  1  0.56745176  0.36999467  0.52608500  1
  O  O218  1  0.81667270  0.12360681  0.61151112  1
  C  C219  1  0.91857649  0.35645521  0.55449174  1
  C  C220  1  0.70729708  0.06423996  0.53685450  1
  H  H221  1  0.69333462  0.17209750  0.57537485  1
  O  O222  1  0.94531219  0.41580344  0.57306732  1
  C  C223  1  0.78913075  0.06960357  0.58899363  1
  O  O224  1  0.94761913  0.30258005  0.59309027  1
  Zn  Zn225  1  0.95422679  0.01979230  0.57430586  1
  H  H226  1  0.66691117  0.25914806  0.54263716  1
  C  C227  1  0.55162523  0.31475034  0.51033097  1
  H  H228  1  0.59380710  0.46916691  0.73864686  1
  O  O229  1  0.83459980  0.01118570  0.60048587  1
  C  C230  1  0.83442475  0.01205281  0.96691946  1
  N  N231  1  0.97275027  0.14308715  0.89414065  1
  C  C232  1  0.91063426  0.15283085  0.82779338  1
  H  H233  1  0.90937511  0.20301356  0.78214057  1
  O  O234  1  0.64354272  0.38184913  0.91482738  1
  O  O235  1  0.69992436  0.17052348  0.86575977  1
  C  C236  1  0.70380513  0.15616302  0.95295241  1
  C  C237  1  0.96424105  0.08017103  0.94923677  1
  C  C238  1  0.85295917  0.10248457  0.84057876  1
  H  H239  1  0.79047049  0.09545548  0.80998849  1
  N  N240  1  0.88021231  0.06387562  0.92196756  1
  C  C241  1  0.63231073  0.43247381  0.96550303  1
  C  C242  1  0.56117839  0.48091853  0.97166945  1
  O  O243  1  0.52182590  0.05991259  0.86797585  1
  C  C244  1  0.50719136  0.00883714  0.91790302  1
  O  O245  1  0.76459040  0.63131898  0.14069930  1
  Zn  Zn246  1  0.85653610  0.93458087  0.08827722  1
  O  O247  1  0.61085082  0.97546521  0.14719988  1
  O  O248  1  0.63580335  0.86242795  0.15682606  1
  C  C249  1  0.65473599  0.92290760  0.13088647  1
  C  C250  1  0.73231226  0.93537403  0.07582844  1
  O  O251  1  0.87190360  0.67673201  0.21498667  1
  C  C252  1  0.88497231  0.56032464  0.17117488  1
  C  C253  1  0.96362900  0.55017972  0.20493124  1
  C  C254  1  0.83658982  0.62912235  0.16818358  1
  C  C255  1  0.76894807  0.87366413  0.02008509  1
  H  H256  1  0.77227713  0.51532522  0.10361483  1
  C  C257  1  0.83799196  0.51102713  0.12966016  1
  H  H258  1  0.72464409  0.83000889  0.00098135  1
  H  H259  1  0.61725759  0.57363077  0.02786988  1
  C  C260  1  0.56154517  0.54985531  0.00950349  1
  Zn  Zn261  1  0.64776578  0.81379636  0.29807773  1
  Zn  Zn262  1  0.52604713  0.53166598  0.35050673  1
  Zn  Zn263  1  0.89184420  0.68467570  0.36181848  1
  C  C264  1  0.85739329  0.91821019  0.33011638  1
  O  O265  1  0.75228121  0.83528322  0.38186709  1
  O  O266  1  0.61698502  0.71714188  0.34960707  1
  O  O267  1  0.57820768  0.89944969  0.39737363  1
  C  C268  1  0.82267058  0.84729969  0.35030962  1
  C  C269  1  0.55132169  0.68601149  0.33504908  1
  C  C270  1  0.80824186  0.97529986  0.31772244  1
  O  O271  1  0.87458743  0.80038380  0.34282725  1
  H  H272  1  0.53975016  0.79657264  0.47881599  1
  C  C273  1  0.55246517  0.95748044  0.38342960  1
  O  O274  1  0.54852671  0.62933725  0.28412243  1
  H  H275  1  0.74253548  0.97347987  0.32749219  1
  C  C276  1  0.94081156  0.92204391  0.32114890  1
  H  H277  1  0.69843387  0.95759885  0.49208951  1
  H  H278  1  0.97777614  0.87360187  0.33262364  1
  C  C279  1  0.97956623  0.98698374  0.31458114  1
  H  H280  1  0.98341989  0.77464701  0.48329846  1
  O  O281  1  0.67853407  0.51006231  0.44338316  1
  C  C282  1  0.94383367  0.62878337  0.65307280  1
  O  O283  1  0.94618748  0.88074612  0.56756393  1
  H  H284  1  0.95108421  0.54162820  0.54323796  1
  O  O285  1  0.67647156  0.77993449  0.66584726  1
  C  C286  1  0.87524813  0.65987288  0.59127164  1
  Zn  Zn287  1  0.84295440  0.90243362  0.66350119  1
  O  O288  1  0.84967167  0.71877786  0.61921951  1
  O  O289  1  0.71053653  0.88868175  0.65171005  1
  H  H290  1  0.53699733  0.87290157  0.59740125  1
  C  C291  1  0.67284915  0.84154784  0.69468700  1
  C  C292  1  0.98081244  0.66388395  0.73289074  1
  C  C293  1  0.97756929  0.56497226  0.61300960  1
  C  C294  1  0.54908508  0.51330435  0.73620020  1
  O  O295  1  0.84243194  0.63337188  0.51279567  1
  Zn  Zn296  1  0.75797326  0.71655378  0.74169924  1
  H  H297  1  0.60342880  0.75340959  0.82738542  1
  H  H298  1  0.92319144  0.94899424  0.86047922  1
  C  C299  1  0.52752727  0.81648171  0.92345200  1
  C  C300  1  0.57937885  0.80614666  0.83753469  1
  C  C301  1  0.84636462  0.87948861  0.95696632  1
  C  C302  1  0.85194930  0.82577850  0.87188259  1
  C  C303  1  0.61346785  0.86209797  0.78370614  1
  C  C304  1  0.50353337  0.88353003  0.95371610  1
  O  O305  1  0.66959504  0.65826838  0.82466487  1
  O  O306  1  0.82034226  0.76748434  0.88066500  1
  C  C307  1  0.59490269  0.92999084  0.80827852  1
  C  C308  1  0.88232807  0.94422811  0.93172766  1
  C  C309  1  0.66391532  0.59551989  0.79511356  1
  O  O310  1  0.88641449  0.84005947  0.78801527  1
  C  C311  1  0.53347133  0.93612575  0.88941697  1
  H  H312  1  0.62068641  0.97299674  0.76312780  1
  H  H313  1  0.57639116  0.67223323  0.94267219  1
  C  C314  1  0.52539506  0.69404040  0.98486654  1
  O  O315  1  0.71933530  0.55656296  0.78693281  1
  H  H316  1  0.54120193  0.68502705  0.77299698  1
  H  H317  1  0.96101219  0.71745543  0.75763195  1
  C  C318  1  0.51980972  0.63378705  0.75436264  1
  C  C319  1  0.57585696  0.57997831  0.75696340  1
