# generated using pymatgen
data_Cu2H9C19(NO4)2
_symmetry_space_group_name_H-M   'P 1'
_cell_length_a   14.29220295
_cell_length_b   13.05775714
_cell_length_c   23.63123122
_cell_angle_alpha   90.00000000
_cell_angle_beta   90.00000000
_cell_angle_gamma   90.00000000
_symmetry_Int_Tables_number   1
_chemical_formula_structural   Cu2H9C19(NO4)2
_chemical_formula_sum   'Cu16 H72 C152 N16 O64'
_cell_volume   4410.15761673
_cell_formula_units_Z   8
loop_
 _symmetry_equiv_pos_site_id
 _symmetry_equiv_pos_as_xyz
  1  'x, y, z'
loop_
 _atom_site_type_symbol
 _atom_site_label
 _atom_site_symmetry_multiplicity
 _atom_site_fract_x
 _atom_site_fract_y
 _atom_site_fract_z
 _atom_site_occupancy
  H  H0  1  0.28780515  0.17022862  0.06342612  1
  C  C1  1  0.02342788  0.24792708  0.15806517  1
  O  O2  1  0.12991380  0.23346095  0.08064638  1
  C  C3  1  0.34869611  0.03058975  0.01932963  1
  H  H4  1  0.30361288  0.22761399  0.14180441  1
  C  C5  1  0.09882471  0.28679853  0.11656297  1
  C  C6  1  0.39318487  0.26861150  0.21115652  1
  O  O7  1  0.13648593  0.37506908  0.12633000  1
  C  C8  1  0.34554480  0.11491340  0.05571821  1
  C  C9  1  0.45179461  0.18264517  0.12958806  1
  N  N10  1  0.42783090  0.11902533  0.08280463  1
  C  C11  1  0.37529587  0.23122648  0.15764916  1
  Cu  Cu12  1  0.19341450  0.43440928  0.18837881  1
  C  C13  1  0.48526512  0.27574906  0.23098278  1
  H  H14  1  0.04208088  0.10562890  0.11856881  1
  O  O15  1  0.23584501  0.31815249  0.22284936  1
  C  C16  1  0.49572635  0.05504865  0.05326108  1
  C  C17  1  0.31627064  0.30615446  0.24452710  1
  O  O18  1  0.39648866  0.31405729  0.44339491  1
  N  N19  1  0.07886551  0.15744010  0.48686249  1
  N  N20  1  0.14718019  0.28864482  0.44638096  1
  C  C21  1  0.06360456  0.24111390  0.45703899  1
  C  C22  1  0.16277992  0.39157777  0.42346101  1
  O  O23  1  0.39687284  0.05224316  0.31338469  1
  C  C24  1  0.14554203  0.42067955  0.36643378  1
  H  H25  1  0.10406432  0.37408513  0.33641857  1
  Cu  Cu26  1  0.37622123  0.18906066  0.32782837  1
  O  O27  1  0.32401606  0.30491157  0.29901261  1
  C  C28  1  0.21526753  0.45842164  0.45951059  1
  H  H29  1  0.46517608  0.46693938  0.46534340  1
  C  C30  1  0.46280989  0.29765656  0.41253482  1
  O  O31  1  0.46277191  0.21556140  0.38226187  1
  C  C32  1  0.21945169  0.23367301  0.47011121  1
  O  O33  1  0.12838260  0.47967423  0.25251199  1
  H  H34  1  0.29191210  0.25406636  0.46206013  1
  C  C35  1  0.17548160  0.15120466  0.49646870  1
  O  O36  1  0.09927567  0.16187459  0.64407933  1
  O  O37  1  0.29662921  0.14971582  0.60818167  1
  C  C38  1  0.08140778  0.23741680  0.66980598  1
  O  O39  1  0.14969338  0.29362958  0.69118010  1
  C  C40  1  0.43035166  0.08591417  0.54157496  1
  C  C41  1  0.06654437  0.01736314  0.55876582  1
  Cu  Cu42  1  0.26333022  0.11758832  0.68438661  1
  Cu  Cu43  1  0.23488146  0.37151211  0.65382677  1
  C  C44  1  0.34723990  0.21845883  0.59107598  1
  H  H45  1  0.37151354  0.03934930  0.54773185  1
  O  O46  1  0.32602631  0.31112981  0.60047435  1
  H  H47  1  0.13101687  0.04314782  0.58219181  1
  O  O48  1  0.36279819  0.18806601  0.71460803  1
  O  O49  1  0.14268269  0.40521085  0.59573760  1
  O  O50  1  0.31494916  0.35382147  0.71914642  1
  C  C51  1  0.37302647  0.28345022  0.72559567  1
  C  C52  1  0.11022655  0.49147936  0.58394282  1
  C  C53  1  0.43264456  0.18588465  0.56166553  1
  H  H54  1  0.46167465  0.01906911  0.65648716  1
  C  C55  1  0.02867630  0.49137921  0.54700578  1
  H  H56  1  0.20494876  0.07961092  0.51262245  1
  H  H57  1  0.04353699  0.40907469  0.73527010  1
  H  H58  1  0.24316166  0.43000519  0.50084384  1
  C  C59  1  0.02555804  0.07058535  0.51323460  1
  H  H60  1  0.48430900  0.12753832  0.86953373  1
  Cu  Cu61  1  0.28875890  0.47544717  0.88576912  1
  C  C62  1  0.26423876  0.17136344  0.92275848  1
  C  C63  1  0.12390725  0.22164042  0.82190946  1
  C  C64  1  0.07160392  0.12874712  0.94756264  1
  H  H65  1  0.07767233  0.20642883  0.93595932  1
  O  O66  1  0.07113513  0.44885236  0.90476349  1
  C  C67  1  0.06603141  0.29428666  0.84879422  1
  O  O68  1  0.33652915  0.37053531  0.93104723  1
  C  C69  1  0.08527596  0.13089100  0.80358644  1
  H  H70  1  0.22137367  0.23022696  0.93940071  1
  O  O71  1  0.19729291  0.39908775  0.85672053  1
  C  C72  1  0.11398926  0.38590060  0.87183300  1
  C  C73  1  0.35674288  0.19021483  0.90634177  1
  N  N74  1  0.13181706  0.05180037  0.93726373  1
  C  C75  1  0.36647901  0.01988165  0.86933568  1
  H  H76  1  0.19762433  0.24928156  0.81780378  1
  C  C77  1  0.39091359  0.29726380  0.91265135  1
  C  C78  1  0.40965983  0.11428105  0.88065693  1
  C  C79  1  0.22520929  0.07196913  0.91277897  1
  C  C80  1  0.45876651  0.31884990  0.75590025  1
  O  O81  1  0.46920272  0.32054783  0.89964244  1
  C  C82  1  0.46867123  0.42386241  0.76369276  1
  C  C83  1  0.14591892  0.05675190  0.77265228  1
  H  H84  1  0.29749636  0.00252515  0.98674994  1
  O  O85  1  0.22538376  0.08958397  0.75835114  1
  H  H86  1  0.41128445  0.47768242  0.75079167  1
  H  H87  1  0.10869125  0.74408749  0.22598719  1
  N  N88  1  0.23318425  0.69863753  0.17653273  1
  C  C89  1  0.15783908  0.58686808  0.12731618  1
  C  C90  1  0.30013815  0.77524768  0.19102961  1
  C  C91  1  0.43578445  0.92245218  0.22810214  1
  C  C92  1  0.24158590  0.64122299  0.12952668  1
  H  H93  1  0.30201283  0.64862878  0.09715749  1
  C  C94  1  0.38821434  0.77893825  0.16583341  1
  N  N95  1  0.10443997  0.61299705  0.17338026  1
  C  C96  1  0.15351347  0.67743048  0.21146904  1
  H  H97  1  0.41465919  0.72655161  0.13343302  1
  H  H98  1  0.12907331  0.54503522  0.08983973  1
  C  C99  1  0.45065526  0.85515168  0.18342212  1
  C  C100  1  0.27624148  0.84586940  0.23583103  1
  N  N101  1  0.43761115  0.99486770  0.01811405  1
  H  H102  1  0.49144058  0.97733386  0.24113920  1
  C  C103  1  0.00779754  0.59260628  0.17764718  1
  C  C104  1  0.17138278  0.51865407  0.34929182  1
  C  C105  1  0.15584570  0.54436811  0.28835755  1
  C  C106  1  0.27869489  0.63024195  0.48095107  1
  C  C107  1  0.23633485  0.55733551  0.44054612  1
  Cu  Cu108  1  0.42857996  0.75473689  0.47688419  1
  O  O109  1  0.31802868  0.70607066  0.45803047  1
  C  C110  1  0.21526888  0.58869724  0.38578718  1
  H  H111  1  0.23544810  0.66580577  0.36749078  1
  O  O112  1  0.17640987  0.63507796  0.27682637  1
  H  H113  1  0.20698755  0.84789242  0.25932741  1
  C  C114  1  0.32603669  0.99048256  0.29797565  1
  O  O115  1  0.01621903  0.71983242  0.42659461  1
  O  O116  1  0.25141283  0.99179386  0.32318625  1
  C  C117  1  0.34491884  0.91224339  0.25419345  1
  C  C118  1  0.04669415  0.91654397  0.57115001  1
  Cu  Cu119  1  0.19308402  0.69266168  0.57982611  1
  Cu  Cu120  1  0.21405322  0.92514126  0.71052490  1
  O  O121  1  0.32750163  0.89659180  0.67900603  1
  C  C122  1  0.39234241  0.83502218  0.68909885  1
  O  O123  1  0.13595782  0.56810475  0.61159062  1
  O  O124  1  0.27863448  0.62238046  0.53333688  1
  O  O125  1  0.38013429  0.75800548  0.71975217  1
  O  O126  1  0.15302468  0.92848571  0.64612682  1
  C  C127  1  0.10665049  0.86610255  0.61522623  1
  O  O128  1  0.10852130  0.77327592  0.62011738  1
  C  C129  1  0.48824664  0.86396064  0.67057547  1
  C  C130  1  0.01383222  0.57290064  0.50881256  1
  H  H131  1  0.05786141  0.64022802  0.50956079  1
  O  O132  1  0.43738976  0.88357053  0.50688591  1
  O  O133  1  0.36198871  0.58064355  0.90510109  1
  H  H134  1  0.13995890  0.89158420  0.96802055  1
  H  H135  1  0.24279502  0.91868011  0.87709837  1
  C  C136  1  0.46052324  0.90521274  0.98639166  1
  C  C137  1  0.42100063  0.94216865  0.83405047  1
  Cu  Cu138  1  0.43598215  0.74606490  0.79302493  1
  C  C139  1  0.10019689  0.96209607  0.96070152  1
  O  O140  1  0.37886345  0.85722524  0.82398752  1
  C  C141  1  0.41310685  0.73998378  0.94710312  1
  C  C142  1  0.33929478  0.66909777  0.92589511  1
  H  H143  1  0.31605811  0.85247316  0.97079242  1
  O  O144  1  0.25913289  0.69993978  0.92486973  1
  C  C145  1  0.39079252  0.83681087  0.96734500  1
  O  O146  1  0.49307464  0.62840041  0.76528723  1
  C  C147  1  0.01120914  0.98469312  0.98429857  1
  O  O148  1  0.49712390  0.96287252  0.81751538  1
  C  C149  1  0.27456929  0.99314783  0.88695224  1
  O  O150  1  0.11686504  0.97406286  0.75359587  1
  O  O151  1  0.68760056  0.00628662  0.06169050  1
  C  C152  1  0.55637987  0.22899629  0.20170206  1
  C  C153  1  0.88681931  0.15899147  0.22592750  1
  C  C154  1  0.93195867  0.10015608  0.18572467  1
  H  H155  1  0.60324518  0.13932421  0.12727822  1
  O  O156  1  0.83624148  0.36841950  0.10268632  1
  O  O157  1  0.70945743  0.19025230  0.18556606  1
  C  C158  1  0.54517403  0.17723028  0.15076804  1
  C  C159  1  0.67104123  0.09072874  0.03555034  1
  O  O160  1  0.59154329  0.12156344  0.02529289  1
  C  C161  1  0.90915786  0.26548160  0.23247506  1
  Cu  Cu162  1  0.77934265  0.27424981  0.14041793  1
  C  C163  1  0.65569602  0.23339490  0.21914702  1
  C  C164  1  0.75587587  0.14579083  0.01547363  1
  C  C165  1  0.84009803  0.09643874  0.02052183  1
  C  C166  1  0.97925557  0.30785567  0.19660668  1
  H  H167  1  0.82735754  0.11783525  0.24556516  1
  H  H168  1  0.99321537  0.39541059  0.19852105  1
  O  O169  1  0.72803137  0.48435528  0.08625373  1
  C  C170  1  0.80896353  0.46100267  0.10336837  1
  H  H171  1  0.54575213  0.00592388  0.07572783  1
  H  H172  1  0.98897251  0.47721818  0.10546841  1
  C  C173  1  0.99877288  0.14521408  0.15100938  1
  H  H174  1  0.83878356  0.01413983  0.03277870  1
  C  C175  1  0.92242437  0.14698003  0.00129011  1
  N  N176  1  0.76143838  0.40017333  0.32971920  1
  C  C177  1  0.62430502  0.34829268  0.37408277  1
  H  H178  1  0.63085446  0.27347525  0.35412941  1
  C  C179  1  0.52695322  0.45997961  0.43533457  1
  H  H180  1  0.76088152  0.22923250  0.32122306  1
  H  H181  1  0.90651007  0.06580899  0.45774493  1
  C  C182  1  0.94616480  0.02722079  0.48835872  1
  C  C183  1  0.77370996  0.30778175  0.29966870  1
  C  C184  1  0.69220019  0.42673140  0.36930764  1
  C  C185  1  0.54500364  0.36829495  0.40820359  1
  C  C186  1  0.82675937  0.47140584  0.31351053  1
  C  C187  1  0.88651345  0.43012240  0.27417703  1
  N  N188  1  0.85669723  0.33053165  0.26776415  1
  O  O189  1  0.67059056  0.28300737  0.26375245  1
  H  H190  1  0.65184796  0.07648026  0.47987299  1
  C  C191  1  0.87833201  0.49500431  0.46814748  1
  H  H192  1  0.81882126  0.49475517  0.43966025  1
  H  H193  1  0.50270953  0.31626470  0.27240692  1
  H  H194  1  0.99375241  0.25897336  0.44105154  1
  H  H195  1  0.68185531  0.40661206  0.48527937  1
  H  H196  1  0.94757175  0.46378214  0.25094629  1
  C  C197  1  0.81983867  0.27290058  0.68002862  1
  C  C198  1  0.72397192  0.34315994  0.50499909  1
  H  H199  1  0.91245275  0.23020748  0.55153559  1
  C  C200  1  0.89527770  0.41094602  0.50538423  1
  H  H201  1  0.97867953  0.34684038  0.57520534  1
  N  N202  1  0.65067252  0.08240822  0.65448126  1
  C  C203  1  0.74133613  0.11091068  0.66016570  1
  N  N204  1  0.73566296  0.21245008  0.67059327  1
  C  C205  1  0.75539909  0.19330260  0.54163008  1
  C  C206  1  0.64503992  0.25058669  0.66748974  1
  H  H207  1  0.62515856  0.33369028  0.67066704  1
  C  C208  1  0.59005274  0.16557662  0.65999618  1
  N  N209  1  0.81768491  0.34056716  0.51718997  1
  C  C210  1  0.80813900  0.35311871  0.71774802  1
  H  H211  1  0.80347429  0.06382296  0.66122497  1
  H  H212  1  0.92115988  0.16525908  0.63708237  1
  C  C213  1  0.91004339  0.23105355  0.66694759  1
  H  H214  1  0.74051794  0.36651844  0.74318988  1
  H  H215  1  0.74078855  0.11797432  0.55834833  1
  C  C216  1  0.83870419  0.24761857  0.53899566  1
  C  C217  1  0.51230152  0.24692350  0.55263752  1
  C  C218  1  0.98443097  0.37286858  0.71837590  1
  C  C219  1  0.96886900  0.41083984  0.54534864  1
  C  C220  1  0.98935836  0.28238331  0.68590946  1
  C  C221  1  0.58955890  0.20597644  0.52234804  1
  N  N222  1  0.68278647  0.25386143  0.52188561  1
  H  H223  1  0.51226638  0.32698622  0.56338343  1
  H  H224  1  0.51518260  0.15890502  0.64944776  1
  C  C225  1  0.89197495  0.40350384  0.73229789  1
  C  C226  1  0.50925462  0.04885871  0.51217419  1
  C  C227  1  0.59109817  0.10533592  0.50227928  1
  H  H228  1  0.93156058  0.32483011  0.88396887  1
  C  C229  1  0.61588097  0.39412806  0.80960006  1
  C  C230  1  0.77132631  0.25879127  0.82913512  1
  C  C231  1  0.60357114  0.28852372  0.79848565  1
  H  H232  1  0.67532216  0.42196891  0.83673311  1
  N  N233  1  0.68908045  0.22727818  0.80659239  1
  O  O234  1  0.90437324  0.45504901  0.95275250  1
  C  C235  1  0.69494310  0.12588810  0.79358680  1
  H  H236  1  0.77941582  0.33482982  0.84524727  1
  H  H237  1  0.82175506  0.02412447  0.79805812  1
  N  N238  1  0.83635267  0.18143611  0.82679671  1
  H  H239  1  0.50988410  0.16403494  0.76837665  1
  C  C240  1  0.93610745  0.18323735  0.83657689  1
  H  H241  1  0.97933606  0.29248279  0.97071251  1
  H  H242  1  0.63302426  0.07658244  0.78350453  1
  C  C243  1  0.55272169  0.46065665  0.78752865  1
  C  C244  1  0.82939711  0.40780098  0.96089129  1
  O  O245  1  0.75149471  0.45310344  0.96507144  1
  C  C246  1  0.97540661  0.27335792  0.86008595  1
  C  C247  1  0.78728409  0.09892786  0.80373341  1
  C  C248  1  0.51942203  0.24573903  0.77635022  1
  C  C249  1  0.82837106  0.29899730  0.97767629  1
  C  C250  1  0.91538977  0.24802599  0.98003332  1
  N  N251  1  0.99797773  0.08695290  0.97993612  1
  H  H252  1  0.96008095  0.04158847  0.78783027  1
  C  C253  1  0.99011855  0.10710322  0.81097533  1
  C  C254  1  0.88638083  0.48035305  0.77738302  1
  C  C255  1  0.74910340  0.24391376  0.99067836  1
  H  H256  1  0.68264247  0.27802724  0.98864353  1
  H  H257  1  0.73312077  0.56410866  0.18629334  1
  C  C258  1  0.95860002  0.53086516  0.13878708  1
  C  C259  1  0.54028393  0.86045978  0.14926787  1
  C  C260  1  0.80898096  0.57323991  0.18120259  1
  O  O261  1  0.55059221  0.79944984  0.11211796  1
  O  O262  1  0.59484333  0.93798129  0.15818602  1
  O  O263  1  0.81602397  0.96253639  0.18804802  1
  O  O264  1  0.95131402  0.94310497  0.14419776  1
  C  C265  1  0.94850689  0.64773896  0.21637291  1
  C  C266  1  0.86180535  0.52360783  0.13999041  1
  C  C267  1  0.85385501  0.63828412  0.21981161  1
  Cu  Cu268  1  0.71905122  0.56169974  0.01797895  1
  H  H269  1  0.98265072  0.69276569  0.24876474  1
  Cu  Cu270  1  0.71458252  0.96573775  0.13980132  1
  C  C271  1  0.90032000  0.99326586  0.17391917  1
  H  H272  1  0.96227405  0.93234587  0.00688079  1
  O  O273  1  0.88441633  0.66999661  0.38935900  1
  H  H274  1  0.72076442  0.58964912  0.40222061  1
  C  C275  1  0.80379858  0.70511005  0.26418508  1
  C  C276  1  0.95045845  0.66256997  0.42678912  1
  O  O277  1  0.65193139  0.69662080  0.46047936  1
  O  O278  1  0.58017063  0.89853987  0.47778780  1
  C  C279  1  0.59896782  0.53486477  0.43154633  1
  C  C280  1  0.58842425  0.63376775  0.46298833  1
  C  C281  1  0.94633602  0.57307709  0.46646111  1
  O  O282  1  0.82383933  0.90091558  0.42351179  1
  O  O283  1  0.51395693  0.65594916  0.49076496  1
  Cu  Cu284  1  0.84654593  0.79866206  0.36719830  1
  C  C285  1  0.84050299  0.88197920  0.47436958  1
  O  O286  1  0.85295783  0.76682568  0.29451818  1
  H  H287  1  0.82632719  0.54779676  0.33602614  1
  O  O288  1  0.72026575  0.70785120  0.26481058  1
  C  C289  1  0.68066555  0.51817797  0.40161503  1
  O  O290  1  0.79574249  0.73641605  0.64054204  1
  C  C291  1  0.64399162  0.79758173  0.65657750  1
  C  C292  1  0.54890299  0.78126376  0.67018855  1
  C  C293  1  0.97359429  0.86639141  0.54466752  1
  H  H294  1  0.95042315  0.79155535  0.55461393  1
  C  C295  1  0.67517943  0.89893133  0.64653704  1
  C  C296  1  0.71791001  0.71760555  0.65635245  1
  H  H297  1  0.74817029  0.91638569  0.63605234  1
  H  H298  1  0.53014534  0.70383322  0.68385648  1
  O  O299  1  0.69294191  0.62754934  0.67593003  1
  C  C300  1  0.51442190  0.96200069  0.65534511  1
  C  C301  1  0.61205608  0.98011473  0.64797008  1
  Cu  Cu302  1  0.73183683  0.58722791  0.74226190  1
  O  O303  1  0.79456484  0.81699802  0.50088982  1
  C  C304  1  0.51107295  0.93720309  0.50028891  1
  Cu  Cu305  1  0.66739586  0.80788856  0.51050157  1
  C  C306  1  0.92616237  0.92320052  0.50425304  1
  C  C307  1  0.55609454  0.57247190  0.78562085  1
  O  O308  1  0.63796770  0.60695495  0.79516818  1
  C  C309  1  0.67884686  0.74180390  0.96324142  1
  O  O310  1  0.74301150  0.80056895  0.96977830  1
  O  O311  1  0.69534553  0.64570975  0.95712464  1
  H  H312  1  0.52237694  0.63899684  0.92589594  1
  C  C313  1  0.57875052  0.77782525  0.96292217  1
  H  H314  1  0.61308671  0.93728787  0.98768844  1
  C  C315  1  0.55547022  0.87833837  0.97758270  1
  O  O316  1  0.95779209  0.50854574  0.80539215  1
  Cu  Cu317  1  0.95067187  0.50115554  0.88266115  1
  C  C318  1  0.50755741  0.71206687  0.94519668  1
  O  O319  1  0.80539851  0.51027630  0.79373814  1
