# generated using pymatgen
data_CuH2(C3O2)2
_symmetry_space_group_name_H-M   'P 1'
_cell_length_a   25.11621470
_cell_length_b   25.45288046
_cell_length_c   17.71222241
_cell_angle_alpha   90.00000000
_cell_angle_beta   90.00000000
_cell_angle_gamma   90.00000000
_symmetry_Int_Tables_number   1
_chemical_formula_structural   CuH2(C3O2)2
_chemical_formula_sum   'Cu48 H96 C288 O192'
_cell_volume   11323.06972515
_cell_formula_units_Z   48
loop_
 _symmetry_equiv_pos_site_id
 _symmetry_equiv_pos_as_xyz
  1  'x, y, z'
loop_
 _atom_site_type_symbol
 _atom_site_label
 _atom_site_symmetry_multiplicity
 _atom_site_fract_x
 _atom_site_fract_y
 _atom_site_fract_z
 _atom_site_occupancy
  O  O0  1  0.44827616  0.02170196  0.20933075  1
  O  O1  1  0.17745590  0.35261466  0.20429971  1
  C  C2  1  0.47419000  0.21664511  0.18399359  1
  C  C3  1  0.10122036  0.33884384  0.05723481  1
  O  O4  1  0.12747655  0.30427130  0.09408435  1
  O  O5  1  0.22324558  0.27865734  0.04239367  1
  C  C6  1  0.02069957  0.31229400  0.12781735  1
  O  O7  1  0.33962600  0.12327460  0.02542659  1
  H  H8  1  0.27687941  0.19724886  0.02464867  1
  O  O9  1  0.48716931  0.31970071  0.04762630  1
  Cu  Cu10  1  0.46528621  0.42755446  0.23218992  1
  O  O11  1  0.41626150  0.43760526  0.14853370  1
  C  C12  1  0.40492577  0.48097373  0.11854440  1
  Cu  Cu13  1  0.19789010  0.31448508  0.12488364  1
  C  C14  1  0.04726563  0.35091529  0.08679481  1
  C  C15  1  0.02294276  0.39818880  0.06505662  1
  H  H16  1  0.03700117  0.27437625  0.14117481  1
  H  H17  1  0.41095176  0.40715009  0.00582821  1
  O  O18  1  0.12125159  0.36540352  0.00573298  1
  H  H19  1  0.48706285  0.18464076  0.14472126  1
  C  C20  1  0.13578462  0.02032848  0.22475470  1
  H  H21  1  0.45757723  0.35136165  0.15612265  1
  C  C22  1  0.45726725  0.31243935  0.18685228  1
  C  C23  1  0.47456940  0.26718028  0.15154083  1
  C  C24  1  0.48941381  0.27613063  0.07058894  1
  Cu  Cu25  1  0.39956231  0.07312483  0.24076253  1
  H  H26  1  0.09316443  0.02367126  0.23343487  1
  C  C27  1  0.24631123  0.01410414  0.20412700  1
  O  O28  1  0.45457191  0.11922060  0.24663316  1
  H  H29  1  0.04842623  0.42514761  0.02893584  1
  C  C30  1  0.40190277  0.49051100  0.03666555  1
  C  C31  1  0.30370682  0.01256301  0.19287914  1
  O  O32  1  0.33108127  0.04347981  0.23735896  1
  C  C33  1  0.15137290  0.06918798  0.34607834  1
  H  H34  1  0.25772091  0.05538090  0.30965219  1
  O  O35  1  0.43716593  0.15135483  0.35887133  1
  C  C36  1  0.44309577  0.30363556  0.26248533  1
  C  C37  1  0.12662990  0.38324585  0.47641113  1
  C  C38  1  0.44966463  0.15910354  0.28971759  1
  O  O39  1  0.41710283  0.38933340  0.29000638  1
  O  O40  1  0.10470770  0.07840736  0.35292737  1
  Cu  Cu41  1  0.47869349  0.15401492  0.44264778  1
  H  H42  1  0.49083607  0.32767270  0.45934288  1
  C  C43  1  0.11196851  0.24130183  0.43403357  1
  O  O44  1  0.15612473  0.39393391  0.41695471  1
  C  C45  1  0.30203495  0.25398142  0.46492899  1
  Cu  Cu46  1  0.20511208  0.03032414  0.48220728  1
  C  C47  1  0.21067905  0.31564015  0.32289463  1
  C  C48  1  0.25511913  0.27137460  0.42556459  1
  O  O49  1  0.06978994  0.25012477  0.39643864  1
  C  C50  1  0.16322521  0.26172048  0.40735784  1
  C  C51  1  0.44467239  0.25583615  0.30065495  1
  C  C52  1  0.20744947  0.24808170  0.44961666  1
  O  O53  1  0.11842414  0.47173914  0.30135530  1
  H  H54  1  0.43526066  0.25846302  0.36241100  1
  C  C55  1  0.25605775  0.30872572  0.36574237  1
  H  H56  1  0.29416546  0.32700252  0.34863224  1
  O  O57  1  0.42849403  0.33563364  0.38825160  1
  O  O58  1  0.18638159  0.07862792  0.39690479  1
  O  O59  1  0.22646198  0.46569555  0.44179501  1
  C  C60  1  0.42769322  0.34515004  0.31703164  1
  Cu  Cu61  1  0.17065250  0.46249732  0.37376300  1
  H  H62  1  0.12469220  0.30230487  0.31269533  1
  C  C63  1  0.16246474  0.29352173  0.34171053  1
  H  H64  1  0.03801806  0.46657521  0.35181491  1
  O  O65  1  0.34421192  0.27922768  0.44776409  1
  O  O66  1  0.07943415  0.38531089  0.47666957  1
  Cu  Cu67  1  0.00458589  0.26628876  0.44706386  1
  Cu  Cu68  1  0.37788386  0.34638963  0.46665697  1
  C  C69  1  0.17210156  0.04031718  0.27742883  1
  C  C70  1  0.22695443  0.04087231  0.26799300  1
  C  C71  1  0.45505982  0.21090240  0.25618455  1
  O  O72  1  0.11134606  0.21393703  0.49249310  1
  H  H73  1  0.23302288  0.37528492  0.48635502  1
  H  H74  1  0.49696449  0.05991603  0.31146994  1
  H  H75  1  0.20696991  0.22222165  0.49854312  1
  O  O76  1  0.24944658  0.38423771  0.25342667  1
  C  C77  1  0.21400634  0.35309840  0.25700797  1
  H  H78  1  0.14517445  0.15221876  0.60469084  1
  O  O79  1  0.18927246  0.07884309  0.55087295  1
  C  C80  1  0.17785442  0.05499729  0.61504737  1
  O  O81  1  0.32599144  0.18834483  0.68684180  1
  C  C82  1  0.45900474  0.18835913  0.59225824  1
  O  O83  1  0.42560476  0.22477820  0.60938005  1
  C  C84  1  0.13235304  0.05856862  0.74498498  1
  C  C85  1  0.14628901  0.08212563  0.67415058  1
  O  O86  1  0.18603632  0.00904095  0.62211353  1
  C  C87  1  0.13275139  0.13347756  0.65989148  1
  Cu  Cu88  1  0.05400159  0.22068548  0.55920877  1
  O  O89  1  0.44744167  0.15551845  0.54028892  1
  C  C90  1  0.25387923  0.49380326  0.58868870  1
  H  H91  1  0.23667418  0.33059735  0.72671180  1
  O  O92  1  0.10332627  0.23716071  0.64922247  1
  H  H93  1  0.47697145  0.25515521  0.70857869  1
  Cu  Cu94  1  0.35252668  0.21793883  0.59491956  1
  C  C95  1  0.28682061  0.21308120  0.72369362  1
  Cu  Cu96  1  0.12714936  0.45410015  0.74820914  1
  C  C97  1  0.24485040  0.35443235  0.60626927  1
  O  O98  1  0.43016904  0.39228232  0.51468790  1
  H  H99  1  0.08544116  0.35679292  0.61467735  1
  O  O100  1  0.25178460  0.23541110  0.69277396  1
  H  H101  1  0.22681403  0.46269963  0.58001573  1
  C  C102  1  0.10206256  0.15921723  0.71531373  1
  O  O103  1  0.44699017  0.40612510  0.63522773  1
  O  O104  1  0.32071633  0.37227215  0.53433234  1
  C  C105  1  0.13025672  0.35534077  0.61394950  1
  C  C106  1  0.21676647  0.34090763  0.67207046  1
  C  C107  1  0.21314884  0.36648345  0.54301221  1
  O  O108  1  0.33764921  0.34496013  0.64759641  1
  C  C109  1  0.45599277  0.38364314  0.57520257  1
  C  C110  1  0.15814149  0.36847763  0.54791493  1
  Cu  Cu111  1  0.38082699  0.39331933  0.69964050  1
  C  C112  1  0.30320845  0.35541483  0.59822668  1
  C  C113  1  0.16184000  0.34389265  0.67489384  1
  O  O114  1  0.19803797  0.45213871  0.71401010  1
  C  C115  1  0.09146240  0.21675396  0.70950805  1
  O  O116  1  0.29914904  0.21874712  0.51597859  1
  O  O117  1  0.10724857  0.47979552  0.65333019  1
  C  C118  1  0.23854187  0.48071690  0.72219753  1
  H  H119  1  0.05703825  0.15520314  0.82238531  1
  C  C120  1  0.08130540  0.13457017  0.77830816  1
  C  C121  1  0.09655157  0.08195022  0.79070806  1
  C  C122  1  0.07619059  0.05238910  0.85986442  1
  C  C123  1  0.25048385  0.24206035  0.84640161  1
  C  C124  1  0.24867146  0.24095612  0.92651057  1
  H  H125  1  0.23155977  0.27353913  0.81598242  1
  C  C126  1  0.30505470  0.16431089  0.92024583  1
  H  H127  1  0.14560306  0.01958763  0.75749912  1
  O  O128  1  0.36697624  0.08664780  0.92258357  1
  C  C129  1  0.31169623  0.16536220  0.84132670  1
  O  O130  1  0.40610502  0.43021084  0.77779764  1
  C  C131  1  0.28121588  0.20542234  0.80908536  1
  H  H132  1  0.33060765  0.00389689  0.96534754  1
  C  C133  1  0.40259472  0.46098707  0.90962208  1
  O  O134  1  0.40094604  0.37448526  0.87549081  1
  Cu  Cu135  1  0.14462294  0.34673290  0.90985986  1
  C  C136  1  0.33723021  0.12244375  0.95898082  1
  O  O137  1  0.04447308  0.06942013  0.90415606  1
  O  O138  1  0.21495174  0.32596832  0.93893068  1
  H  H139  1  0.33285609  0.13662311  0.81188604  1
  O  O140  1  0.07194728  0.24246922  0.76454628  1
  O  O141  1  0.23621850  0.02297311  0.93214439  1
  Cu  Cu142  1  0.43359265  0.06081785  0.96054163  1
  C  C143  1  0.40393184  0.41724081  0.85225150  1
  O  O144  1  0.16703265  0.33261743  0.80909741  1
  C  C145  1  0.22701343  0.28345732  0.97203195  1
  C  C146  1  0.27638154  0.20043915  0.96178244  1
  C  C147  1  0.13922862  0.33722980  0.75138871  1
  O  O148  1  0.07855159  0.47812315  0.90433518  1
  O  O149  1  0.08960513  0.34566059  0.75299427  1
  O  O150  1  0.25581854  0.49157613  0.78530926  1
  O  O151  1  0.09477358  0.00396550  0.86425417  1
  C  C152  1  0.40514705  0.44914563  0.98675225  1
  Cu  Cu153  1  0.02780149  0.30074034  0.77014659  1
  H  H154  1  0.37752043  0.63651492  0.16083768  1
  C  C155  1  0.40191301  0.67022842  0.14599299  1
  O  O156  1  0.39933691  0.52032694  0.16141072  1
  C  C157  1  0.45692818  0.67265601  0.16694161  1
  O  O158  1  0.29562976  0.67829784  0.12410185  1
  C  C159  1  0.32404740  0.70248794  0.08265083  1
  H  H160  1  0.40230155  0.77449172  0.02792739  1
  C  C161  1  0.38442155  0.70962402  0.10069030  1
  C  C162  1  0.35466646  0.80261387  0.22115798  1
  O  O163  1  0.01311299  0.68165682  0.08393067  1
  H  H164  1  0.38753758  0.57321642  0.05401994  1
  C  C165  1  0.39156217  0.54152742  0.01298487  1
  Cu  Cu166  1  0.37851407  0.94030246  0.14151816  1
  C  C167  1  0.47594948  0.63164803  0.21753694  1
  O  O168  1  0.07353083  0.96861264  0.11582156  1
  C  C169  1  0.21156670  0.99055893  0.15112021  1
  C  C170  1  0.47268513  0.74712244  0.08574186  1
  O  O171  1  0.41543206  0.99795821  0.01181917  1
  O  O172  1  0.43749923  0.93720379  0.20583531  1
  H  H173  1  0.22904270  0.96725777  0.10266439  1
  O  O174  1  0.30830864  0.72231752  0.02031085  1
  O  O175  1  0.37394526  0.86924613  0.13366638  1
  O  O176  1  0.28869208  0.85566830  0.15797619  1
  C  C177  1  0.33477915  0.84378917  0.16380427  1
  C  C178  1  0.41820698  0.74732393  0.06907897  1
  H  H179  1  0.44008969  0.81509951  0.21252977  1
  C  C180  1  0.11983000  0.97090201  0.10461921  1
  O  O181  1  0.14310623  0.95346796  0.04447479  1
  C  C182  1  0.40775819  0.79527561  0.24002553  1
  C  C183  1  0.49124518  0.70958399  0.13726180  1
  C  C184  1  0.45703011  0.97616656  0.23654405  1
  C  C185  1  0.01899783  0.63526706  0.06209558  1
  O  O186  1  0.32382674  0.98688426  0.14134420  1
  H  H187  1  0.05479931  0.54146345  0.01064659  1
  C  C188  1  0.05740491  0.62702048  0.00038183  1
  O  O189  1  0.45164736  0.91677519  0.01395505  1
  C  C190  1  0.15726477  0.99660994  0.16121377  1
  O  O191  1  0.13345397  0.54137968  0.23358754  1
  H  H192  1  0.05152285  0.60922347  0.22632761  1
  H  H193  1  0.26997758  0.78953241  0.23808618  1
  O  O194  1  0.44089751  0.60212823  0.24854323  1
  O  O195  1  0.16433981  0.66985158  0.42448212  1
  H  H196  1  0.07067558  0.68006081  0.46215555  1
  C  C197  1  0.16671910  0.63464615  0.47371706  1
  C  C198  1  0.04903733  0.53656827  0.28746520  1
  Cu  Cu199  1  0.25763052  0.60750759  0.40167652  1
  O  O200  1  0.26982717  0.53460737  0.39673199  1
  O  O201  1  0.29409353  0.67074591  0.38842182  1
  O  O202  1  0.40984760  0.55445986  0.43060837  1
  H  H203  1  0.38508708  0.69302686  0.36469085  1
  C  C204  1  0.28193739  0.70792553  0.34471212  1
  O  O205  1  0.23407037  0.72528731  0.34438586  1
  O  O206  1  0.48002565  0.71890989  0.38603600  1
  C  C207  1  0.49003074  0.51961869  0.48275070  1
  C  C208  1  0.45073752  0.53273303  0.41973778  1
  C  C209  1  0.07024714  0.64538630  0.49755209  1
  O  O210  1  0.27790323  0.91323523  0.45037047  1
  C  C211  1  0.18648900  0.90268345  0.47410961  1
  O  O212  1  0.21035620  0.61178905  0.48471461  1
  C  C213  1  0.01958776  0.50460403  0.33533246  1
  C  C214  1  0.25667331  0.50382170  0.45140984  1
  H  H215  1  0.13212271  0.96489611  0.44492956  1
  C  C216  1  0.37574159  0.72638552  0.32419852  1
  C  C217  1  0.41631574  0.75717232  0.29440606  1
  C  C218  1  0.46901101  0.74714971  0.32788184  1
  Cu  Cu219  1  0.42890412  0.52450296  0.25587159  1
  C  C220  1  0.32340926  0.74149075  0.30937493  1
  Cu  Cu221  1  0.20495468  0.73616617  0.43427908  1
  O  O222  1  0.22601797  0.97981677  0.41866414  1
  C  C223  1  0.10298243  0.51605052  0.27001269  1
  O  O224  1  0.46246612  0.51742336  0.35025638  1
  C  C225  1  0.02786207  0.58487713  0.26309862  1
  C  C226  1  0.23595525  0.93423572  0.44816617  1
  C  C227  1  0.19268436  0.85096380  0.49892353  1
  C  C228  1  0.13705899  0.92597262  0.47157803  1
  H  H229  1  0.23317380  0.83236166  0.49323062  1
  C  C230  1  0.31116024  0.78122348  0.25702583  1
  C  C231  1  0.49584259  0.97675299  0.29808244  1
  H  H232  1  0.33457070  0.57849191  0.49008289  1
  O  O233  1  0.03960493  0.97636543  0.48492996  1
  C  C234  1  0.30416891  0.55080011  0.67772364  1
  C  C235  1  0.32324245  0.57449414  0.61305578  1
  C  C236  1  0.36075971  0.62031563  0.62352004  1
  O  O237  1  0.37287482  0.63280655  0.69213078  1
  O  O238  1  0.37957173  0.64331160  0.57105915  1
  C  C239  1  0.07104167  0.55617510  0.58890238  1
  C  C240  1  0.02135570  0.62782849  0.52763296  1
  C  C241  1  0.02373134  0.58378759  0.57512192  1
  C  C242  1  0.26785315  0.50998095  0.66096943  1
  H  H243  1  0.44861377  0.57139136  0.56754400  1
  C  C244  1  0.27542237  0.52061562  0.52554409  1
  C  C245  1  0.48124228  0.54355400  0.55350420  1
  O  O246  1  0.18977481  0.74552701  0.54061863  1
  H  H247  1  0.31278939  0.56612380  0.73627323  1
  O  O248  1  0.05392495  0.72132196  0.70884867  1
  H  H249  1  0.06809941  0.83409594  0.57477416  1
  Cu  Cu250  1  0.12863932  0.71917114  0.69088517  1
  C  C251  1  0.09439061  0.90171650  0.50801365  1
  O  O252  1  0.11439339  0.74650576  0.59799262  1
  O  O253  1  0.47372319  0.59863261  0.68354269  1
  C  C254  1  0.11807471  0.57144776  0.55368569  1
  C  C255  1  0.14948389  0.77097707  0.55955712  1
  C  C256  1  0.31208720  0.56025574  0.53828082  1
  H  H257  1  0.15257037  0.54718487  0.56175365  1
  O  O258  1  0.00564333  0.90386021  0.53893846  1
  O  O259  1  0.02380216  0.50477090  0.67502651  1
  C  C260  1  0.06454164  0.50803178  0.63867730  1
  C  C261  1  0.10087608  0.85207540  0.54223913  1
  C  C262  1  0.14850419  0.82591867  0.53099974  1
  C  C263  1  0.04400454  0.93119453  0.51133320  1
  C  C264  1  0.11665480  0.61742763  0.50983814  1
  O  O265  1  0.03671780  0.80182711  0.74741280  1
  C  C266  1  0.11055071  0.61121407  0.86549344  1
  C  C267  1  0.09061426  0.56843737  0.90515933  1
  C  C268  1  0.10574412  0.66163074  0.89597133  1
  C  C269  1  0.07877051  0.66973463  0.96379393  1
  C  C270  1  0.39639866  0.51146418  0.88421448  1
  C  C271  1  0.38304518  0.60583065  0.90703930  1
  C  C272  1  0.39039182  0.55370448  0.93613081  1
  O  O273  1  0.37936503  0.61339186  0.83664801  1
  O  O274  1  0.38189466  0.64434178  0.95315660  1
  C  C275  1  0.32751945  0.96341734  0.94375729  1
  Cu  Cu276  1  0.35025015  0.70625554  0.93169675  1
  C  C277  1  0.06674602  0.57601061  0.97487900  1
  C  C278  1  0.36926483  0.87492719  0.93226922  1
  Cu  Cu279  1  0.42578964  0.60709493  0.75713370  1
  C  C280  1  0.12581149  0.70548082  0.85108028  1
  O  O281  1  0.35237898  0.77283074  0.88559675  1
  H  H282  1  0.13053330  0.60468932  0.81106758  1
  C  C283  1  0.31248827  0.80388388  0.86895829  1
  O  O284  1  0.27150520  0.79322155  0.83933516  1
  O  O285  1  0.12495387  0.50927010  0.81013160  1
  C  C286  1  0.41611345  0.94851871  0.99442299  1
  H  H287  1  0.24020619  0.87445353  0.86326037  1
  H  H288  1  0.40026911  0.84467850  0.94959951  1
  C  C289  1  0.37175824  0.92900810  0.95114334  1
  C  C290  1  0.32273181  0.85926732  0.89582726  1
  C  C291  1  0.28246622  0.94156072  0.91706500  1
  H  H292  1  0.39229011  0.52050781  0.82351667  1
  C  C293  1  0.02881912  0.75636924  0.75408858  1
  O  O294  1  0.11831157  0.74976246  0.87338041  1
  H  H295  1  0.07315218  0.71188605  0.98688614  1
  C  C296  1  0.27782845  0.89064299  0.88865979  1
  O  O297  1  0.18843336  0.95436616  0.90471575  1
  Cu  Cu298  1  0.12306929  0.97680600  0.95163934  1
  C  C299  1  0.23398740  0.97706164  0.91462728  1
  C  C300  1  0.09725479  0.51433452  0.87105260  1
  O  O301  1  0.14692635  0.69362083  0.78497934  1
  O  O302  1  0.49146110  0.81178983  0.99814665  1
  H  H303  1  0.57788281  0.14086063  0.13096971  1
  C  C304  1  0.58238803  0.09831555  0.13983493  1
  C  C305  1  0.55978884  0.06284525  0.09049518  1
  C  C306  1  0.60496942  0.07791663  0.20716478  1
  C  C307  1  0.61353359  0.02341197  0.21075133  1
  C  C308  1  0.85772843  0.09505011  0.20902351  1
  C  C309  1  0.94086184  0.36977797  0.12318246  1
  Cu  Cu310  1  0.81187835  0.45885757  0.23487543  1
  C  C311  1  0.68412707  0.45644690  0.02279339  1
  O  O312  1  0.52148960  0.46072752  0.17698142  1
  O  O313  1  0.89455774  0.46618399  0.08460985  1
  O  O314  1  0.95831939  0.23660444  0.19331369  1
  H  H315  1  0.55250412  0.44151023  0.05262081  1
  C  C316  1  0.67775390  0.31506025  0.20965730  1
  C  C317  1  0.93522055  0.27984141  0.17136941  1
  O  O318  1  0.82247589  0.39270493  0.19424830  1
  C  C319  1  0.75414831  0.48910268  0.11194406  1
  O  O320  1  0.78666106  0.49138103  0.05829956  1
  H  H321  1  0.75343242  0.34120675  0.01800370  1
  C  C322  1  0.63306391  0.44118736  0.00871075  1
  H  H323  1  0.61991682  0.27757445  0.13858799  1
  C  C324  1  0.96666637  0.32321786  0.13745211  1
  H  H325  1  0.89796850  0.37545075  0.13374361  1
  C  C326  1  0.80391491  0.37677355  0.13277288  1
  O  O327  1  0.82710565  0.38392646  0.07019933  1
  C  C328  1  0.94421741  0.46018888  0.07116961  1
  Cu  Cu329  1  0.84446111  0.44631785  0.01689283  1
  C  C330  1  0.72710007  0.34247345  0.20926238  1
  C  C331  1  0.66390541  0.47448618  0.15555822  1
  C  C332  1  0.97098750  0.40924633  0.08756094  1
  Cu  Cu333  1  0.91350742  0.18476835  0.23286328  1
  H  H334  1  0.87060192  0.00224581  0.12805844  1
  C  C335  1  0.56845145  0.47116963  0.19130726  1
  C  C336  1  0.61191831  0.46470729  0.13570436  1
  C  C337  1  0.75286920  0.34867764  0.13987920  1
  C  C338  1  0.65757582  0.29716354  0.14094114  1
  C  C339  1  0.59440832  0.44843680  0.06506988  1
  O  O340  1  0.88786493  0.28731156  0.17966636  1
  C  C341  1  0.55911418  0.00930375  0.09822214  1
  C  C342  1  0.69941504  0.47331813  0.09488279  1
  C  C343  1  0.68401440  0.30599034  0.07286113  1
  C  C344  1  0.73139787  0.33322114  0.06870657  1
  O  O345  1  0.84305804  0.10102701  0.14589437  1
  H  H346  1  0.67553169  0.48394371  0.21486213  1
  C  C347  1  0.88268910  0.00225095  0.18721941  1
  O  O348  1  0.96897137  0.49330836  0.03361441  1
  O  O349  1  0.51123491  0.23476790  0.03920976  1
  O  O350  1  0.61737205  0.25389942  0.01084078  1
  C  C351  1  0.87702557  0.04397387  0.23779651  1
  C  C352  1  0.53577615  0.08446669  0.01606900  1
  C  C353  1  0.65654335  0.28567294  0.00680221  1
  O  O354  1  0.72159440  0.18790156  0.41756291  1
  C  C355  1  0.55594251  0.07427417  0.43225909  1
  C  C356  1  0.54100373  0.02397708  0.40175394  1
  Cu  Cu357  1  0.57878003  0.21725373  0.31304408  1
  H  H358  1  0.81118518  0.20195646  0.36835188  1
  C  C359  1  0.82984297  0.17714988  0.41260655  1
  C  C360  1  0.88425643  0.17192758  0.42512343  1
  O  O361  1  0.90521264  0.22145305  0.32338069  1
  C  C362  1  0.51072324  0.02325838  0.33430902  1
  C  C363  1  0.92359382  0.20246699  0.38269608  1
  O  O364  1  0.58326183  0.07199136  0.49430083  1
  H  H365  1  0.74501315  0.35625031  0.25943314  1
  O  O366  1  0.61634132  0.22569868  0.45120681  1
  C  C367  1  0.88955008  0.04281899  0.31410847  1
  Cu  Cu368  1  0.68563710  0.25331476  0.44401739  1
  O  O369  1  0.97071126  0.20729269  0.40618036  1
  O  O370  1  0.60270021  0.28330808  0.27500034  1
  O  O371  1  0.94407619  0.02816955  0.44918468  1
  C  C372  1  0.80001690  0.14969466  0.46453095  1
  O  O373  1  0.65624844  0.11039571  0.31257672  1
  H  H374  1  0.88620680  0.07914361  0.34989259  1
  C  C375  1  0.57409372  0.25398397  0.44513159  1
  C  C376  1  0.74208074  0.15740396  0.46498487  1
  O  O377  1  0.95099819  0.44518931  0.43024118  1
  O  O378  1  0.54368238  0.25210565  0.38760694  1
  Cu  Cu379  1  0.64254657  0.37499192  0.38488622  1
  H  H380  1  0.53867248  0.46882285  0.41486762  1
  O  O381  1  0.53703892  0.11699196  0.41003549  1
  C  C382  1  0.93656621  0.48844867  0.41130850  1
  O  O383  1  0.66819480  0.31545506  0.34183337  1
  O  O384  1  0.77113494  0.43988997  0.32109382  1
  C  C385  1  0.72476541  0.45221757  0.34002950  1
  O  O386  1  0.68541172  0.42255967  0.32438462  1
  O  O387  1  0.60807676  0.42560383  0.43379078  1
  C  C388  1  0.64885008  0.30220047  0.27849827  1
  C  C389  1  0.53225161  0.48549628  0.47213483  1
  C  C390  1  0.90585944  0.13987571  0.48237381  1
  O  O391  1  0.77946688  0.32037940  0.48198723  1
  H  H392  1  0.62905384  0.49890337  0.35812936  1
  O  O393  1  0.86100354  0.13671304  0.25400573  1
  O  O394  1  0.58211567  0.49564498  0.25183880  1
  H  H395  1  0.94998909  0.13971305  0.49175723  1
  O  O396  1  0.61063868  0.16991528  0.25036029  1
  H  H397  1  0.64026840  0.00752414  0.25285332  1
  C  C398  1  0.62217507  0.11958875  0.26292313  1
  C  C399  1  0.63782148  0.11644829  0.67256682  1
  C  C400  1  0.59001984  0.15053803  0.68019835  1
  C  C401  1  0.54837732  0.15206292  0.63002720  1
  H  H402  1  0.54690915  0.12294448  0.58630270  1
  O  O403  1  0.64120995  0.08479284  0.61964800  1
  H  H404  1  0.78804022  0.09494709  0.55571816  1
  C  C405  1  0.89899851  0.07952128  0.58981805  1
  C  C406  1  0.83410485  0.18991694  0.65993762  1
  H  H407  1  0.92372855  0.18794163  0.67756114  1
  C  C408  1  0.88713989  0.20545073  0.64774748  1
  O  O409  1  0.86854388  0.05588950  0.63176179  1
  O  O410  1  0.94923698  0.07478297  0.59455641  1
  C  C411  1  0.81950705  0.14660606  0.71141328  1
  C  C412  1  0.89502079  0.24318344  0.59336193  1
  H  H413  1  0.74967227  0.20594602  0.63484113  1
  C  C414  1  0.79090770  0.21660431  0.62632255  1
  C  C415  1  0.94980202  0.25674528  0.57484926  1
  O  O416  1  0.95614005  0.28625436  0.51949083  1
  H  H417  1  0.58832057  0.48767051  0.64902642  1
  H  H418  1  0.86234210  0.30064399  0.51492033  1
  C  C419  1  0.81738901  0.11420185  0.52053481  1
  Cu  Cu420  1  0.73090999  0.08046355  0.74943667  1
  H  H421  1  0.63167298  0.26599327  0.56925369  1
  C  C422  1  0.80118577  0.25428351  0.57410973  1
  Cu  Cu423  1  0.87556968  0.05097674  0.73698125  1
  O  O424  1  0.71375542  0.27433982  0.52925226  1
  O  O425  1  0.77258333  0.13785126  0.73181452  1
  C  C426  1  0.87248859  0.11138123  0.52923283  1
  H  H427  1  0.52802700  0.36588110  0.69276872  1
  C  C428  1  0.91985589  0.42339027  0.73901520  1
  O  O429  1  0.66514074  0.29383627  0.68531371  1
  O  O430  1  0.98903600  0.38665654  0.67059278  1
  C  C431  1  0.59114489  0.18284097  0.74380041  1
  C  C432  1  0.91109821  0.46203097  0.68563057  1
  C  C433  1  0.56838429  0.47728843  0.53102232  1
  C  C434  1  0.53883237  0.34766501  0.63794815  1
  C  C435  1  0.56147849  0.28895567  0.50665960  1
  C  C436  1  0.58452393  0.31884414  0.63186974  1
  H  H437  1  0.93776262  0.46383519  0.63722779  1
  C  C438  1  0.51704785  0.32401635  0.50978420  1
  C  C439  1  0.76386107  0.28858716  0.52658976  1
  C  C440  1  0.62617299  0.31909915  0.69467341  1
  C  C441  1  0.59637501  0.28802394  0.56787404  1
  O  O442  1  0.65046071  0.43169508  0.54215978  1
  C  C443  1  0.96702846  0.38747026  0.72963336  1
  O  O444  1  0.67625388  0.12231624  0.71809436  1
  C  C445  1  0.85276273  0.26873351  0.55480762  1
  C  C446  1  0.55014291  0.21941807  0.74469672  1
  C  C447  1  0.56052311  0.49842800  0.60139043  1
  Cu  Cu448  1  0.98918077  0.02531681  0.53251902  1
  C  C449  1  0.50374283  0.34841963  0.57488266  1
  O  O450  1  0.98796858  0.23270025  0.61138831  1
  O  O451  1  0.71405155  0.13986030  0.51852633  1
  C  C452  1  0.87041951  0.49895801  0.69752645  1
  Cu  Cu453  1  0.64577084  0.10610015  0.51296255  1
  C  C454  1  0.50551780  0.22425401  0.69747022  1
  C  C455  1  0.50596746  0.18760032  0.63877155  1
  O  O456  1  0.85757449  0.12355985  0.74410236  1
  C  C457  1  0.61385136  0.44161930  0.50180695  1
  O  O458  1  0.98473056  0.35667124  0.78440051  1
  C  C459  1  0.88266204  0.41486221  0.79772769  1
  H  H460  1  0.62335436  0.18838833  0.78489107  1
  O  O461  1  0.58263499  0.24923266  0.86700030  1
  O  O462  1  0.61549582  0.34332703  0.75852522  1
  C  C463  1  0.54872092  0.25603186  0.81038925  1
  C  C464  1  0.61367636  0.41871342  0.93407440  1
  C  C465  1  0.83579860  0.49634310  0.75899695  1
  O  O466  1  0.64947297  0.39677391  0.89192855  1
  C  C467  1  0.84322736  0.45303171  0.80585449  1
  O  O468  1  0.56747084  0.41793226  0.92231602  1
  O  O469  1  0.67555548  0.29952462  0.94288792  1
  H  H470  1  0.88728883  0.38331641  0.84071632  1
  O  O471  1  0.81725334  0.42101589  0.93117137  1
  Cu  Cu472  1  0.64125249  0.32733725  0.85629311  1
  C  C473  1  0.80393131  0.45001392  0.87166429  1
  O  O474  1  0.78097815  0.02978418  0.78393359  1
  Cu  Cu475  1  0.55407181  0.24129195  0.95324843  1
  H  H476  1  0.71389512  0.45214689  0.97436779  1
  O  O477  1  0.76660400  0.47778078  0.86865715  1
  O  O478  1  0.78611900  0.00744740  0.90213787  1
  O  O479  1  0.54337222  0.12865820  0.99797121  1
  O  O480  1  0.50404787  0.05242165  0.98381872  1
  O  O481  1  0.51403038  0.28829133  0.81600195  1
  H  H482  1  0.53502040  0.70773346  0.15499734  1
  Cu  Cu483  1  0.59476060  0.84655797  0.07403691  1
  Cu  Cu484  1  0.89559942  0.86461054  0.02132969  1
  C  C485  1  0.58885921  0.93207590  0.17720071  1
  O  O486  1  0.92312057  0.74321022  0.05869963  1
  O  O487  1  0.91335061  0.86852573  0.19586487  1
  C  C488  1  0.89420442  0.90855588  0.17060815  1
  C  C489  1  0.51118873  0.78334552  0.05039581  1
  O  O490  1  0.88027805  0.91515168  0.09865149  1
  Cu  Cu491  1  0.96239448  0.71508098  0.14162110  1
  O  O492  1  0.94964189  0.81842544  0.01157879  1
  O  O493  1  0.61485344  0.91280465  0.22605625  1
  O  O494  1  0.56436327  0.90264110  0.12627289  1
  O  O495  1  0.55913890  0.78259082  0.06670621  1
  C  C496  1  0.89540900  0.95408560  0.22119456  1
  Cu  Cu497  1  0.94802122  0.56091084  0.01629292  1
  H  H498  1  0.53569870  0.98425452  0.05759078  1
  C  C499  1  0.58904287  0.99063437  0.15997211  1
  C  C500  1  0.94100029  0.77058927  0.00528204  1
  O  O501  1  0.98885858  0.59733736  0.08119395  1
  O  O502  1  0.76436885  0.50568070  0.17792352  1
  O  O503  1  0.98628750  0.68448144  0.22821042  1
  O  O504  1  0.52272029  0.62842485  0.24259186  1
  C  C505  1  0.60573632  0.59649812  0.39981767  1
  C  C506  1  0.66308108  0.51936916  0.38063082  1
  O  O507  1  0.56957775  0.57454333  0.36098786  1
  C  C508  1  0.65788706  0.57069710  0.40746734  1
  Cu  Cu509  1  0.92351568  0.72199734  0.39662407  1
  H  H510  1  0.91046029  0.58303681  0.35556586  1
  O  O511  1  0.97596986  0.68781667  0.45898330  1
  C  C512  1  0.71855069  0.81063471  0.36782159  1
  H  H513  1  0.58742968  0.96997401  0.47460804  1
  O  O514  1  0.60278196  0.64521255  0.41724275  1
  C  C515  1  0.75169518  0.58330540  0.43348896  1
  C  C516  1  0.69970285  0.60252388  0.43349884  1
  O  O517  1  0.67879789  0.95442406  0.43545610  1
  H  H518  1  0.82887521  0.91299392  0.42626862  1
  Cu  Cu519  1  0.54087643  0.68301592  0.40394576  1
  O  O520  1  0.63277569  0.76998858  0.38932452  1
  C  C521  1  0.75848168  0.53408277  0.40107792  1
  O  O522  1  0.89060724  0.50909372  0.42964469  1
  C  C523  1  0.67960024  0.76541573  0.35557811  1
  Cu  Cu524  1  0.89758949  0.57007389  0.48964301  1
  C  C525  1  0.91482355  0.99080513  0.42307493  1
  C  C526  1  0.98009225  0.60366873  0.29209856  1
  C  C527  1  0.90839312  0.94955840  0.29794707  1
  O  O528  1  0.84131384  0.60482897  0.44971260  1
  O  O529  1  0.90647382  0.83617834  0.40694277  1
  C  C530  1  0.86888855  0.81387475  0.38094011  1
  O  O531  1  0.87301354  0.76510060  0.35740032  1
  C  C532  1  0.56732186  0.87885638  0.42125902  1
  H  H533  1  0.78381731  0.75551289  0.35154189  1
  C  C534  1  0.81142682  0.83227869  0.38356928  1
  O  O535  1  0.90847129  0.94986481  0.46119530  1
  C  C536  1  0.79499888  0.61404291  0.46695908  1
  O  O537  1  0.55352494  0.84069863  0.38112640  1
  H  H538  1  0.79860133  0.51843382  0.40663238  1
  C  C539  1  0.80024107  0.88290447  0.41111280  1
  H  H540  1  0.69548749  0.64529528  0.44577547  1
  C  C541  1  0.77173646  0.79540746  0.36425479  1
  H  H542  1  0.91787249  0.91015177  0.32083064  1
  Cu  Cu543  1  0.56895858  0.77190303  0.34459530  1
  C  C544  1  0.56080757  0.97460462  0.42643300  1
  C  C545  1  0.70460653  0.86086735  0.39079969  1
  O  O546  1  0.92112192  0.67697682  0.30810545  1
  O  O547  1  0.69075330  0.72694045  0.32128563  1
  C  C548  1  0.74748895  0.89448507  0.41088514  1
  C  C549  1  0.54801336  0.92893677  0.38896764  1
  O  O550  1  0.76050247  0.98403202  0.45198088  1
  C  C551  1  0.94990045  0.56982146  0.33748070  1
  H  H552  1  0.66311770  0.87405020  0.39194816  1
  O  O553  1  0.50564154  0.76972559  0.29327833  1
  C  C554  1  0.96189390  0.65725462  0.27564080  1
  C  C555  1  0.96905414  0.52113529  0.35790023  1
  O  O556  1  0.58970949  0.87795746  0.48450566  1
  C  C557  1  0.71638181  0.50305455  0.37822436  1
  C  C558  1  0.73044225  0.95041378  0.43536789  1
  Cu  Cu559  1  0.56137432  0.56391037  0.25496871  1
  C  C560  1  0.90416598  0.99373114  0.34206132  1
  H  H561  1  0.50165968  0.89112231  0.30165758  1
  C  C562  1  0.51253487  0.92892290  0.32823648  1
  Cu  Cu563  1  0.80615274  0.64412679  0.62134440  1
  O  O564  1  0.82285065  0.57215995  0.64783866  1
  O  O565  1  0.82374937  0.70046600  0.67702405  1
  C  C566  1  0.86220600  0.54093653  0.64138771  1
  Cu  Cu567  1  0.94282288  0.93779794  0.55437126  1
  O  O568  1  0.89524043  0.54189460  0.58894788  1
  O  O569  1  0.92858907  0.63405884  0.53297261  1
  H  H570  1  0.72628327  0.98083917  0.70697442  1
  C  C571  1  0.63113201  0.93388804  0.66911969  1
  H  H572  1  0.85940321  0.84725507  0.61322228  1
  C  C573  1  0.88115722  0.93701751  0.68848670  1
  C  C574  1  0.83797813  0.74929080  0.65380610  1
  O  O575  1  0.84425369  0.75612069  0.58857160  1
  C  C576  1  0.51316736  0.56464580  0.68053263  1
  O  O577  1  0.66074551  0.94838852  0.61231604  1
  O  O578  1  0.88302090  0.93892517  0.61847762  1
  O  O579  1  0.78285274  0.64534305  0.52086533  1
  C  C580  1  0.86587494  0.88614531  0.72525409  1
  H  H581  1  0.98741419  0.56887050  0.60211939  1
  C  C582  1  0.84739572  0.79463076  0.70673369  1
  C  C583  1  0.85898531  0.84354161  0.67696922  1
  O  O584  1  0.58994710  0.91193413  0.66151440  1
  O  O585  1  0.54019553  0.55486272  0.73399291  1
  O  O586  1  0.89178601  0.97582971  0.72984442  1
  C  C587  1  0.65389017  0.93891101  0.74667130  1
  C  C588  1  0.51757263  0.53389384  0.60943707  1
  Cu  Cu589  1  0.64763921  0.92247458  0.52057813  1
  C  C590  1  0.97193726  0.65273712  0.51006495  1
  C  C591  1  0.93699451  0.60255638  0.86925123  1
  C  C592  1  0.93503684  0.69197379  0.92477025  1
  C  C593  1  0.95148046  0.65976126  0.86594889  1
  C  C594  1  0.84962240  0.78748818  0.78519332  1
  O  O595  1  0.95458202  0.57380727  0.82258925  1
  C  C596  1  0.99634070  0.73290743  0.81812882  1
  H  H597  1  0.85905063  0.91722217  0.84310989  1
  C  C598  1  0.95388582  0.74380808  0.93298640  1
  H  H599  1  0.84603165  0.74614547  0.80552179  1
  H  H600  1  0.91343080  0.67459691  0.97355634  1
  C  C601  1  0.62403868  0.91448086  0.80155401  1
  O  O602  1  0.91420069  0.58668252  0.93065470  1
  C  C603  1  0.83734851  0.82253490  0.91313683  1
  O  O604  1  0.57200537  0.86496592  0.91441169  1
  H  H605  1  0.71781036  0.93820744  0.94337935  1
  C  C606  1  0.86006546  0.88348671  0.80364847  1
  C  C607  1  0.61851513  0.88308951  0.93239754  1
  H  H608  1  0.58838677  0.88969472  0.78672943  1
  O  O609  1  0.82201899  0.78107595  0.93417668  1
  C  C610  1  0.64705806  0.91375019  0.87549508  1
  C  C611  1  0.98078956  0.76781287  0.87346877  1
  C  C612  1  0.71942857  0.96625936  0.82740338  1
  O  O613  1  0.84038164  0.86253916  0.95911822  1
  C  C614  1  0.69641929  0.93723860  0.88600488  1
  C  C615  1  0.85279974  0.83262866  0.83182897  1
  Cu  Cu616  1  0.50952070  0.88374450  0.96496514  1
  C  C617  1  0.98238306  0.67997024  0.80844380  1
  H  H618  1  0.80193154  0.52601562  0.76688602  1
  H  H619  1  0.99616588  0.65538872  0.75919657  1
  H  H620  1  0.99060503  0.80934202  0.87140203  1
  C  C621  1  0.76795446  0.99945823  0.84217535  1
  O  O622  1  0.63096563  0.88650831  0.99986130  1
  C  C623  1  0.70315347  0.96447517  0.75273263  1
