# generated using pymatgen
data_CuH2(C3O2)2
_symmetry_space_group_name_H-M   'P 1'
_cell_length_a   23.62410697
_cell_length_b   23.36511664
_cell_length_c   21.05405935
_cell_angle_alpha   90.00000000
_cell_angle_beta   90.00000000
_cell_angle_gamma   90.00000000
_symmetry_Int_Tables_number   1
_chemical_formula_structural   CuH2(C3O2)2
_chemical_formula_sum   'Cu48 H96 C288 O192'
_cell_volume   11621.41999193
_cell_formula_units_Z   48
loop_
 _symmetry_equiv_pos_site_id
 _symmetry_equiv_pos_as_xyz
  1  'x, y, z'
loop_
 _atom_site_type_symbol
 _atom_site_label
 _atom_site_symmetry_multiplicity
 _atom_site_fract_x
 _atom_site_fract_y
 _atom_site_fract_z
 _atom_site_occupancy
  C  C0  1  0.08000858  0.17820624  0.22022511  1
  C  C1  1  0.35861402  0.06736002  0.17520526  1
  O  O2  1  0.01615104  0.14208910  0.06652524  1
  C  C3  1  0.45752905  0.07141210  0.14889066  1
  C  C4  1  0.21066630  0.40590686  0.06591692  1
  O  O5  1  0.37474290  0.26760323  0.05362358  1
  H  H6  1  0.46789334  0.09444556  0.19447586  1
  O  O7  1  0.41544701  0.30974508  0.17691273  1
  H  H8  1  0.06944215  0.34494149  0.20007479  1
  H  H9  1  0.25266090  0.45941475  0.13771190  1
  C  C10  1  0.17435101  0.23058943  0.13098598  1
  C  C11  1  0.21112866  0.18202708  0.10867069  1
  H  H12  1  0.11640532  0.23101078  0.04908336  1
  O  O13  1  0.02587417  0.28087740  0.03036426  1
  C  C14  1  0.03717672  0.30469620  0.08611749  1
  C  C15  1  0.21715511  0.45543583  0.10191802  1
  C  C16  1  0.04133157  0.17608641  0.16804221  1
  C  C17  1  0.18555242  0.25443620  0.18955522  1
  C  C18  1  0.12791175  0.24655524  0.09653524  1
  C  C19  1  0.10022353  0.31434689  0.17786240  1
  O  O20  1  0.19944993  0.15544723  0.05938843  1
  Cu  Cu21  1  0.35396888  0.31690998  0.11944590  1
  O  O22  1  0.24786234  0.16133672  0.14450179  1
  C  C23  1  0.38978717  0.02778283  0.06949740  1
  O  O24  1  0.09777513  0.11639329  0.11167397  1
  C  C25  1  0.05183349  0.14414231  0.11079007  1
  C  C26  1  0.14989934  0.29904585  0.20957449  1
  O  O27  1  0.24430715  0.31316725  0.04609659  1
  Cu  Cu28  1  0.14983635  0.09339333  0.04590764  1
  O  O29  1  0.37692813  0.09135937  0.22495497  1
  O  O30  1  0.29135599  0.36328805  0.11776680  1
  C  C31  1  0.43578077  0.01383397  0.03353510  1
  C  C32  1  0.09239154  0.29137628  0.11828003  1
  O  O33  1  0.30619487  0.06076180  0.16625385  1
  C  C34  1  0.40403587  0.05193365  0.12945577  1
  Cu  Cu35  1  0.24115318  0.09897030  0.20016852  1
  H  H36  1  0.22135440  0.24179524  0.21798841  1
  C  C37  1  0.25007664  0.35655213  0.07405028  1
  C  C38  1  0.42932517  0.33764043  0.22754582  1
  H  H39  1  0.34647617  0.02052078  0.05085813  1
  H  H40  1  0.12058957  0.15866501  0.21859065  1
  O  O41  1  0.11251333  0.02950198  0.03205784  1
  O  O42  1  0.00372649  0.33417065  0.11179939  1
  O  O43  1  0.46154795  0.37719102  0.23141453  1
  C  C44  1  0.49173314  0.02920807  0.04971531  1
  C  C45  1  0.17025748  0.40522041  0.01606254  1
  H  H46  1  0.37184994  0.23899187  0.24387699  1
  C  C47  1  0.39975403  0.28588329  0.00544296  1
  C  C48  1  0.13883049  0.45302220  0.00535084  1
  O  O49  1  0.45307986  0.28131872  0.00061925  1
  C  C50  1  0.23150512  0.05607452  0.32015815  1
  O  O51  1  0.15546871  0.19809445  0.32679979  1
  H  H52  1  0.03320800  0.07903614  0.44193566  1
  O  O53  1  0.40219997  0.40750902  0.45960761  1
  C  C54  1  0.17540411  0.07860139  0.41488094  1
  C  C55  1  0.40326154  0.35268568  0.34231121  1
  O  O56  1  0.13316201  0.49832071  0.35579179  1
  O  O57  1  0.04149469  0.49284856  0.35065378  1
  C  C58  1  0.02017899  0.06292302  0.31644238  1
  C  C59  1  0.16698794  0.32504620  0.27194576  1
  Cu  Cu60  1  0.15648377  0.42201911  0.35478361  1
  H  H61  1  0.31588595  0.27315990  0.43384582  1
  O  O62  1  0.26305323  0.19621518  0.37745072  1
  C  C63  1  0.37646510  0.36379465  0.45713802  1
  C  C64  1  0.19140576  0.35902119  0.46394698  1
  C  C65  1  0.08295702  0.35759509  0.44723665  1
  C  C66  1  0.12549169  0.06192473  0.31662354  1
  H  H67  1  0.21755612  0.08394809  0.43877356  1
  O  O68  1  0.08092982  0.22751728  0.38233288  1
  C  C69  1  0.10051152  0.20999738  0.33442308  1
  O  O70  1  0.19743395  0.40258732  0.43200682  1
  O  O71  1  0.20501650  0.30280507  0.30433147  1
  H  H72  1  0.42317865  0.39567277  0.34577636  1
  H  H73  1  0.08181514  0.39252494  0.41510566  1
  C  C74  1  0.13433284  0.33550850  0.47433456  1
  Cu  Cu75  1  0.20075546  0.24655735  0.36429823  1
  C  C76  1  0.33985552  0.28449623  0.39258082  1
  C  C77  1  0.07408378  0.07902208  0.41595975  1
  Cu  Cu78  1  0.34737480  0.09001509  0.31056566  1
  C  C79  1  0.37330688  0.33336609  0.39456373  1
  C  C80  1  0.17587027  0.06501764  0.34921904  1
  C  C81  1  0.07455848  0.06844770  0.34973575  1
  C  C82  1  0.06281771  0.20577455  0.27481861  1
  C  C83  1  0.03327663  0.32816773  0.45997226  1
  C  C84  1  0.12556332  0.08330756  0.44665574  1
  C  C85  1  0.30143565  0.19772326  0.33698946  1
  C  C86  1  0.33892717  0.24908228  0.33844778  1
  O  O87  1  0.41379519  0.07022951  0.35370630  1
  O  O88  1  0.31208223  0.16297748  0.29363577  1
  C  C89  1  0.37073018  0.26712144  0.28684788  1
  O  O90  1  0.27802017  0.06432249  0.34878522  1
  C  C91  1  0.40024329  0.31922508  0.28768519  1
  O  O92  1  0.14100249  0.36776739  0.29576847  1
  H  H93  1  0.11950165  0.05547527  0.26530267  1
  O  O94  1  0.23129412  0.33251605  0.49319407  1
  O  O95  1  0.02395428  0.04941642  0.25851998  1
  C  C96  1  0.43142305  0.02061139  0.37605345  1
  C  C97  1  0.49290542  0.00209423  0.37606360  1
  C  C98  1  0.01115013  0.23374381  0.28151203  1
  H  H99  1  0.00079567  0.26160284  0.32454375  1
  O  O100  1  0.22791148  0.04507985  0.26170851  1
  C  C101  1  0.21137491  0.44754662  0.67132403  1
  O  O102  1  0.03134829  0.18819019  0.58399942  1
  C  C103  1  0.41803457  0.17459689  0.67541137  1
  C  C104  1  0.16687273  0.02898063  0.66306877  1
  Cu  Cu105  1  0.17704193  0.15782363  0.61877755  1
  O  O106  1  0.16737258  0.10737916  0.54367890  1
  Cu  Cu107  1  0.28694119  0.35810909  0.55160709  1
  Cu  Cu108  1  0.03406442  0.11280878  0.61744648  1
  O  O109  1  0.45445571  0.15444034  0.57080654  1
  C  C110  1  0.07599363  0.21874630  0.57873119  1
  O  O111  1  0.11692307  0.21409716  0.61600661  1
  O  O112  1  0.22875864  0.36922060  0.60773389  1
  O  O113  1  0.33834274  0.07222286  0.63126325  1
  C  C114  1  0.22440755  0.04406650  0.65378042  1
  C  C115  1  0.46224627  0.16137133  0.62630411  1
  C  C116  1  0.07924525  0.26747210  0.53595114  1
  O  O117  1  0.25621293  0.36569178  0.70695270  1
  C  C118  1  0.23748158  0.39407081  0.65940882  1
  C  C119  1  0.02455220  0.32594047  0.73666668  1
  C  C120  1  0.13154266  0.29371464  0.52068208  1
  O  O121  1  0.34674872  0.34107656  0.50422869  1
  Cu  Cu122  1  0.03535827  0.42249440  0.64825272  1
  C  C123  1  0.26276796  0.21167823  0.68779418  1
  C  C124  1  0.36259197  0.18584117  0.65621645  1
  C  C125  1  0.23147794  0.47883591  0.72339990  1
  C  C126  1  0.32504365  0.02340253  0.62837950  1
  H  H127  1  0.23887075  0.08509296  0.67412094  1
  H  H128  1  0.34368398  0.18572978  0.60787676  1
  O  O129  1  0.24214840  0.20642529  0.63294345  1
  C  C130  1  0.12821985  0.07391882  0.68360902  1
  O  O131  1  0.07437321  0.06598787  0.67796698  1
  H  H132  1  0.14652917  0.43888162  0.59795412  1
  C  C133  1  0.32139494  0.19865384  0.70249870  1
  O  O134  1  0.43913240  0.01790643  0.72105152  1
  O  O135  1  0.15066174  0.12217407  0.69602544  1
  C  C136  1  0.16301721  0.46412190  0.63694305  1
  H  H137  1  0.17084509  0.28099288  0.54590207  1
  O  O138  1  0.07613867  0.08127532  0.54403729  1
  C  C139  1  0.12242305  0.09188796  0.51669703  1
  C  C140  1  0.26128967  0.00575593  0.62908262  1
  O  O141  1  0.05985766  0.48052655  0.59536337  1
  C  C142  1  0.03044370  0.28463402  0.50634620  1
  O  O143  1  0.22931140  0.22511863  0.73317444  1
  O  O144  1  0.02531811  0.47025643  0.72300474  1
  O  O145  1  0.01072638  0.35827104  0.69261529  1
  C  C146  1  0.43473017  0.17858228  0.73898206  1
  Cu  Cu147  1  0.21653184  0.30063328  0.74489983  1
  O  O148  1  0.37516790  0.20427931  0.88769283  1
  C  C149  1  0.22208703  0.30034198  0.87985416  1
  H  H150  1  0.03099760  0.26459401  0.84303256  1
  C  C151  1  0.30370108  0.36707057  0.86664730  1
  H  H152  1  0.47810228  0.17249726  0.75751980  1
  O  O153  1  0.19885604  0.26408927  0.90871300  1
  O  O154  1  0.09873840  0.01092702  0.92995307  1
  H  H155  1  0.47006348  0.06662145  0.90248466  1
  C  C156  1  0.39182436  0.19175142  0.78104767  1
  O  O157  1  0.46544039  0.19780297  0.86720345  1
  C  C158  1  0.09813229  0.45054866  0.95049379  1
  C  C159  1  0.27922286  0.32040678  0.89709900  1
  C  C160  1  0.39314620  0.35534771  0.92160263  1
  O  O161  1  0.34369658  0.46886752  0.81632164  1
  H  H162  1  0.30525752  0.20635174  0.80752119  1
  Cu  Cu163  1  0.49646213  0.23105584  0.94498255  1
  C  C164  1  0.44555421  0.02780870  0.78032549  1
  C  C165  1  0.35960503  0.38479531  0.87742654  1
  C  C166  1  0.31302948  0.29329083  0.94401297  1
  O  O167  1  0.20084429  0.32538148  0.82885397  1
  O  O168  1  0.09956833  0.40412743  0.91428056  1
  H  H169  1  0.27800439  0.39062748  0.83435138  1
  O  O170  1  0.42812639  0.45453465  0.85801660  1
  Cu  Cu171  1  0.07949567  0.39204081  0.82788517  1
  C  C172  1  0.41226960  0.19586557  0.85051914  1
  C  C173  1  0.37784391  0.43907600  0.84616253  1
  O  O174  1  0.40479745  0.01949691  0.81745273  1
  H  H175  1  0.43402780  0.37143056  0.93554927  1
  O  O176  1  0.00710327  0.18782905  0.92087009  1
  C  C177  1  0.36816023  0.31028784  0.95302448  1
  H  H178  1  0.29844409  0.25378661  0.96721936  1
  O  O179  1  0.09149304  0.46464005  0.80071068  1
  C  C180  1  0.33579668  0.19939608  0.76792743  1
  O  O181  1  0.06496779  0.33682591  0.77492859  1
  O  O182  1  0.06415722  0.48684192  0.94107181  1
  Cu  Cu183  1  0.48398251  0.47267118  0.79864292  1
  C  C184  1  0.49690976  0.05803046  0.80065033  1
  C  C185  1  0.05558064  0.49054320  0.76738935  1
  H  H186  1  0.16601881  0.36696023  0.98695463  1
  H  H187  1  0.26837309  0.46203178  0.75257503  1
  C  C188  1  0.49606572  0.80227599  0.16062571  1
  C  C189  1  0.05633379  0.93724491  0.06939006  1
  O  O190  1  0.17380096  0.72257266  0.06787826  1
  Cu  Cu191  1  0.24799131  0.78111803  0.17644424  1
  C  C192  1  0.14958520  0.76022084  0.23952832  1
  C  C193  1  0.01057984  0.87638165  0.15255834  1
  C  C194  1  0.02139276  0.89107215  0.08414954  1
  O  O195  1  0.25881945  0.74293939  0.10326411  1
  O  O196  1  0.04145236  0.89839713  0.19361722  1
  Cu  Cu197  1  0.14584402  0.67085357  0.14250222  1
  O  O198  1  0.15312441  0.60053114  0.10400206  1
  O  O199  1  0.19716967  0.78292137  0.24130186  1
  C  C200  1  0.22305070  0.74101860  0.05820686  1
  Cu  Cu201  1  0.02377624  0.97448431  0.22448935  1
  O  O202  1  0.13025571  0.73896036  0.18730645  1
  C  C203  1  0.43739222  0.79707604  0.17055797  1
  C  C204  1  0.18503991  0.55728278  0.12365677  1
  C  C205  1  0.18106270  0.50175335  0.08924640  1
  H  H206  1  0.07857559  0.96607406  0.10457599  1
  H  H207  1  0.40689308  0.80367022  0.13230930  1
  O  O208  1  0.21411475  0.56009630  0.16967675  1
  C  C209  1  0.41968772  0.78144452  0.23210062  1
  H  H210  1  0.03583725  0.73145430  0.23620161  1
  O  O211  1  0.32821510  0.78525175  0.18370291  1
  O  O212  1  0.47422742  0.82262721  0.05180371  1
  H  H213  1  0.32047325  0.79021463  0.03427649  1
  C  C214  1  0.14456378  0.50531355  0.03717666  1
  C  C215  1  0.06047548  0.94638859  0.00436385  1
  C  C216  1  0.35706742  0.78419738  0.23757103  1
  H  H217  1  0.11648154  0.54107080  0.02681140  1
  C  C218  1  0.10758950  0.76719800  0.29014867  1
  C  C219  1  0.12942257  0.64530637  0.46100853  1
  O  O220  1  0.15512535  0.83568786  0.46829917  1
  C  C221  1  0.10471122  0.82608701  0.45499491  1
  H  H222  1  0.17696708  0.58103861  0.40948670  1
  C  C223  1  0.08688231  0.80409532  0.39385516  1
  C  C224  1  0.08462717  0.51973894  0.36981553  1
  C  C225  1  0.02944105  0.59793461  0.42075727  1
  H  H226  1  0.16882207  0.81138781  0.34970985  1
  C  C227  1  0.08153129  0.57232803  0.40617481  1
  C  C228  1  0.03045822  0.64783308  0.45750781  1
  C  C229  1  0.13436472  0.59855955  0.42205042  1
  C  C230  1  0.12458611  0.79676534  0.34355852  1
  C  C231  1  0.45506256  0.77444727  0.28464615  1
  H  H232  1  0.43927231  0.76781592  0.33257589  1
  H  H233  1  0.47085546  0.92206741  0.42426496  1
  C  C234  1  0.02933981  0.78729866  0.38640686  1
  O  O235  1  0.47013405  0.71937103  0.48277386  1
  O  O236  1  0.33439223  0.77984780  0.28946847  1
  C  C237  1  0.05140460  0.74944225  0.28111729  1
  C  C238  1  0.08002129  0.67240950  0.47999407  1
  O  O239  1  0.22374010  0.65555099  0.47720276  1
  O  O240  1  0.39790186  0.98697716  0.39727968  1
  C  C241  1  0.01420640  0.75896758  0.33081068  1
  C  C242  1  0.17962563  0.67942101  0.48839545  1
  O  O243  1  0.06600466  0.82374751  0.49848898  1
  O  O244  1  0.12067048  0.85821621  0.60794018  1
  O  O245  1  0.44367760  0.56336259  0.73085312  1
  C  C246  1  0.42963694  0.62958139  0.61484700  1
  Cu  Cu247  1  0.05653618  0.87946981  0.55984577  1
  C  C248  1  0.29144266  0.74367442  0.60675865  1
  Cu  Cu249  1  0.23228444  0.81100343  0.69410890  1
  C  C250  1  0.24549233  0.95063531  0.61300933  1
  C  C251  1  0.20534097  0.52984934  0.73925258  1
  H  H252  1  0.10614381  0.96344672  0.66052545  1
  C  C253  1  0.13723465  0.51444045  0.65554498  1
  C  C254  1  0.39044435  0.62462197  0.66425647  1
  C  C255  1  0.08242072  0.52773732  0.62080870  1
  C  C256  1  0.33895074  0.70226720  0.61020367  1
  O  O257  1  0.29340810  0.85488114  0.71876678  1
  C  C258  1  0.46563054  0.67423213  0.51710511  1
  C  C259  1  0.34528103  0.66202792  0.66102442  1
  C  C260  1  0.39604700  0.58309264  0.71650391  1
  C  C261  1  0.37718693  0.70953344  0.56012990  1
  Cu  Cu262  1  0.40267260  0.94961470  0.69796773  1
  O  O263  1  0.25639329  0.74680911  0.65148143  1
  C  C264  1  0.16912712  0.87794083  0.60404852  1
  Cu  Cu265  1  0.21396685  0.79261572  0.51874518  1
  H  H266  1  0.31451523  0.65964852  0.70032903  1
  O  O267  1  0.21140950  0.84677952  0.58435236  1
  O  O268  1  0.38074344  0.87567474  0.68554770  1
  H  H269  1  0.27712054  0.91971644  0.59198753  1
  C  C270  1  0.42242113  0.67213460  0.56927726  1
  O  O271  1  0.28415313  0.76883769  0.55410424  1
  C  C272  1  0.18868926  0.93533532  0.62027405  1
  H  H273  1  0.46754566  0.60109304  0.61389852  1
  C  C274  1  0.34624150  0.84517764  0.71851565  1
  O  O275  1  0.49960384  0.63497598  0.51508424  1
  C  C276  1  0.15499151  0.54740983  0.70607627  1
  C  C277  1  0.15022702  0.97308197  0.65060907  1
  H  H278  1  0.13541841  0.58775254  0.71756154  1
  O  O279  1  0.05694941  0.56942816  0.63205625  1
  H  H280  1  0.37411075  0.74141000  0.52258979  1
  H  H281  1  0.46135412  0.82310746  0.72053719  1
  O  O282  1  0.36247357  0.98037995  0.63060817  1
  C  C283  1  0.43411851  0.78957334  0.74495032  1
  C  C284  1  0.37460531  0.79560540  0.74368169  1
  O  O285  1  0.35273141  0.57657386  0.74990996  1
  H  H286  1  0.08083339  0.71007026  0.51154370  1
  O  O287  1  0.17653007  0.72233861  0.52575175  1
  C  C288  1  0.01060754  0.86089129  0.97449371  1
  O  O289  1  0.01378737  0.81891485  0.87052460  1
  C  C290  1  0.32418612  0.66918368  0.83575170  1
  C  C291  1  0.34105655  0.75512738  0.77492255  1
  O  O292  1  0.25726962  0.54362861  0.83813320  1
  C  C293  1  0.42383664  0.70068955  0.80697304  1
  C  C294  1  0.27675804  0.82048552  0.88546868  1
  O  O295  1  0.33916707  0.62691740  0.86847445  1
  O  O296  1  0.37909250  0.87300484  0.88531279  1
  Cu  Cu297  1  0.20532617  0.66499476  0.87457519  1
  O  O298  1  0.13717889  0.65108491  0.91354686  1
  C  C299  1  0.03856582  0.91180932  0.95654429  1
  O  O300  1  0.20813217  0.82785039  0.78148639  1
  C  C301  1  0.36417974  0.70672378  0.80543977  1
  H  H302  1  0.11073011  0.55612173  0.84751458  1
  C  C303  1  0.22134025  0.56039017  0.79634377  1
  O  O304  1  0.14732519  0.76572136  0.82236969  1
  H  H305  1  0.04216732  0.92088574  0.90542495  1
  O  O306  1  0.27085251  0.68115873  0.83099828  1
  H  H307  1  0.29236430  0.83833140  0.84111503  1
  O  O308  1  0.46889024  0.95172213  0.95348001  1
  C  C309  1  0.23780694  0.76783004  0.99695701  1
  H  H310  1  0.44458081  0.66545110  0.83390489  1
  O  O311  1  0.07551485  0.71952349  0.89974067  1
  C  C312  1  0.22350800  0.79435132  0.88801439  1
  C  C313  1  0.30972846  0.81845888  0.94022923  1
  C  C314  1  0.04123763  0.55039379  0.78091271  1
  Cu  Cu315  1  0.33750761  0.54902068  0.83771521  1
  C  C316  1  0.29150179  0.79266686  0.99697123  1
  Cu  Cu317  1  0.08070481  0.78797619  0.84967398  1
  H  H318  1  0.16159226  0.74801419  0.94337829  1
  Cu  Cu319  1  0.38420243  0.95233421  0.85507984  1
  C  C320  1  0.09365775  0.67053110  0.88771933  1
  C  C321  1  0.19241274  0.79563639  0.82666015  1
  C  C322  1  0.43168841  0.98488340  0.97202178  1
  C  C323  1  0.06014229  0.63660914  0.83968930  1
  C  C324  1  0.20365243  0.76672819  0.94303822  1
  C  C325  1  0.36208179  0.85094395  0.93762519  1
  C  C326  1  0.07387350  0.58025253  0.82466147  1
  O  O327  1  0.19210920  0.60470147  0.81173009  1
  H  H328  1  0.29373216  0.75785652  0.77874597  1
  C  C329  1  0.45391875  0.74222683  0.77697396  1
  O  O330  1  0.38436609  0.98645733  0.94105121  1
  C  C331  1  0.01340155  0.66346944  0.81516086  1
  O  O332  1  0.38899494  0.86022199  0.98853704  1
  C  C333  1  0.09383587  0.99867989  0.98481032  1
  Cu  Cu334  1  0.46878029  0.88088361  0.99921499  1
  Cu  Cu335  1  0.64390506  0.10213939  0.02781377  1
  Cu  Cu336  1  0.81245196  0.19312358  0.19802351  1
  O  O337  1  0.56458788  0.10986805  0.16544838  1
  H  H338  1  0.82061004  0.09155222  0.07516458  1
  C  C339  1  0.73470092  0.26855270  0.11283513  1
  C  C340  1  0.83119997  0.07540049  0.19378493  1
  O  O341  1  0.69986535  0.11799667  0.08621273  1
  H  H342  1  0.95827261  0.19804019  0.13397942  1
  O  O343  1  0.73142186  0.37916804  0.13949375  1
  C  C344  1  0.78162653  0.29857413  0.09674518  1
  C  C345  1  0.56001613  0.07549231  0.12014430  1
  C  C346  1  0.69664980  0.16789932  0.11304084  1
  O  O347  1  0.65427063  0.17744014  0.14809586  1
  C  C348  1  0.77502476  0.36662156  0.11126030  1
  C  C349  1  0.83012929  0.22150734  0.04933463  1
  O  O350  1  0.81301447  0.39805560  0.09499294  1
  H  H351  1  0.69662521  0.28800303  0.13492935  1
  O  O352  1  0.60022583  0.05760631  0.08744968  1
  C  C353  1  0.81061228  0.04707851  0.08558577  1
  Cu  Cu354  1  0.99891294  0.20958139  0.01217215  1
  C  C355  1  0.78339749  0.18590891  0.05888003  1
  C  C356  1  0.97523800  0.22682793  0.22970447  1
  Cu  Cu357  1  0.63120091  0.13186195  0.20903118  1
  C  C358  1  0.73737197  0.21062700  0.09238751  1
  O  O359  1  0.84196429  0.12418987  0.17245555  1
  C  C360  1  0.82942320  0.27896985  0.06817841  1
  O  O361  1  0.88137472  0.23112529  0.19480262  1
  C  C362  1  0.81712312  0.02950484  0.14889902  1
  H  H363  1  0.86696681  0.30736894  0.06051495  1
  H  H364  1  0.78342299  0.14110177  0.04184126  1
  C  C365  1  0.88232014  0.19625966  0.02119154  1
  C  C366  1  0.91437748  0.24599118  0.24063728  1
  C  C367  1  0.98742769  0.20220050  0.17229466  1
  C  C368  1  0.78817703  0.00806880  0.04167621  1
  H  H369  1  0.52985577  0.02062324  0.02217737  1
  C  C370  1  0.50025853  0.06003508  0.10563187  1
  O  O371  1  0.92272132  0.23046753  0.01023029  1
  O  O372  1  0.88503113  0.14352883  0.00925880  1
  O  O373  1  0.86374391  0.07895935  0.38271737  1
  O  O374  1  0.83579306  0.06726216  0.25316203  1
  O  O375  1  0.93509191  0.32639738  0.44716743  1
  Cu  Cu376  1  0.74313966  0.08132127  0.31333327  1
  O  O377  1  0.82465677  0.32331157  0.44121579  1
  H  H378  1  0.90843163  0.06597103  0.48592724  1
  C  C379  1  0.69028178  0.16563038  0.39865479  1
  C  C380  1  0.82301337  0.02944872  0.46999924  1
  O  O381  1  0.60527875  0.08908126  0.27430572  1
  H  H382  1  0.66038717  0.13305589  0.37919682  1
  C  C383  1  0.68611102  0.18308260  0.46096336  1
  C  C384  1  0.79627969  0.29632089  0.48219411  1
  H  H385  1  0.51737421  0.07493741  0.31679956  1
  C  C386  1  0.53034835  0.03504959  0.34143007  1
  C  C387  1  0.73559143  0.18678042  0.29610859  1
  C  C388  1  0.62523784  0.04361560  0.29970921  1
  O  O389  1  0.78123724  0.03333848  0.37021146  1
  H  H390  1  0.79740633  0.26287480  0.36090729  1
  C  C391  1  0.98037966  0.34646026  0.42816168  1
  C  C392  1  0.76464601  0.24163559  0.38944595  1
  O  O393  1  0.97278577  0.06788329  0.34263209  1
  C  C394  1  0.73114054  0.19855625  0.36370556  1
  O  O395  1  0.62624895  0.10579721  0.49025387  1
  C  C396  1  0.75866743  0.25347682  0.45533665  1
  O  O397  1  0.89925467  0.27001847  0.28697903  1
  Cu  Cu398  1  0.90345463  0.06573942  0.30288908  1
  C  C399  1  0.82474025  0.04759663  0.40395552  1
  O  O400  1  0.67761662  0.03025072  0.29751253  1
  O  O401  1  0.71493656  0.14250654  0.27125899  1
  C  C402  1  0.58515412  0.01227117  0.33794286  1
  C  C403  1  0.71421935  0.22870562  0.49203603  1
  Cu  Cu404  1  0.87875503  0.37369279  0.47567960  1
  O  O405  1  0.98416656  0.38402126  0.38452820  1
  Cu  Cu406  1  0.98500450  0.45994163  0.39653770  1
  O  O407  1  0.76712978  0.22052171  0.26443432  1
  O  O408  1  0.93905160  0.49777369  0.44777178  1
  C  C409  1  0.91622637  0.47483015  0.49578431  1
  O  O410  1  0.77904551  0.43867879  0.67874182  1
  C  C411  1  0.92695619  0.04518124  0.60257164  1
  O  O412  1  0.85604537  0.23180930  0.63520457  1
  Cu  Cu413  1  0.63554458  0.46674653  0.67194194  1
  Cu  Cu414  1  0.79358907  0.26489099  0.60355793  1
  C  C415  1  0.87311590  0.04198423  0.50496683  1
  O  O416  1  0.79234593  0.31438799  0.53941449  1
  H  H417  1  0.85420650  0.43853900  0.59495840  1
  O  O418  1  0.83478888  0.15504930  0.69386688  1
  C  C419  1  0.62561917  0.11599159  0.72690083  1
  O  O420  1  0.64287998  0.16832761  0.56301726  1
  C  C421  1  0.86338998  0.19975676  0.68286279  1
  C  C422  1  0.84462426  0.48276384  0.58003022  1
  O  O423  1  0.56984785  0.42452450  0.68371400  1
  C  C424  1  0.94314552  0.26450648  0.71516277  1
  O  O425  1  0.61890196  0.10983326  0.66755707  1
  O  O426  1  0.93397511  0.01858160  0.64947020  1
  H  H427  1  0.64589828  0.34470139  0.67164884  1
  Cu  Cu428  1  0.58294987  0.16129006  0.60952557  1
  O  O429  1  0.72466671  0.26418610  0.64453683  1
  C  C430  1  0.71614390  0.25908311  0.70392167  1
  H  H431  1  0.70167599  0.24575447  0.53962474  1
  C  C432  1  0.90950907  0.21595897  0.72607245  1
  H  H433  1  0.93463613  0.29226792  0.67549064  1
  C  C434  1  0.63724066  0.33036944  0.71928054  1
  C  C435  1  0.76040349  0.47903404  0.65159982  1
  O  O436  1  0.51432971  0.16397047  0.65127987  1
  C  C437  1  0.55303920  0.39557230  0.73078295  1
  Cu  Cu438  1  0.75245634  0.14636022  0.73055293  1
  C  C439  1  0.87100205  0.02901807  0.56840011  1
  H  H440  1  0.53226023  0.06058575  0.70135440  1
  O  O441  1  0.92519901  0.42383514  0.51211201  1
  H  H442  1  0.98764257  0.27073454  0.51969929  1
  O  O443  1  0.96081396  0.08519885  0.58242344  1
  O  O444  1  0.74747586  0.22736205  0.73920609  1
  O  O445  1  0.67310171  0.13590555  0.74945837  1
  C  C446  1  0.67293925  0.28718026  0.73980705  1
  C  C447  1  0.64727208  0.14990175  0.50269023  1
  C  C448  1  0.61977621  0.29074615  0.83991908  1
  O  O449  1  0.59188445  0.08694473  0.96961225  1
  C  C450  1  0.50100038  0.07727074  0.86495197  1
  C  C451  1  0.80565715  0.07050982  0.81895356  1
  O  O452  1  0.93836984  0.13054170  0.89269750  1
  O  O453  1  0.56026026  0.27963304  0.92984982  1
  O  O454  1  0.85335418  0.07316984  0.84687559  1
  H  H455  1  0.54162627  0.34671469  0.84016373  1
  C  C456  1  0.58242319  0.10196582  0.77342864  1
  H  H457  1  0.89165044  0.14690104  0.79201972  1
  C  C458  1  0.57972420  0.33034275  0.81579899  1
  C  C459  1  0.91645124  0.18655309  0.78338169  1
  Cu  Cu460  1  0.86705883  0.10724049  0.92714835  1
  C  C461  1  0.55744620  0.12204324  0.94626836  1
  C  C462  1  0.59118096  0.11575064  0.83809730  1
  C  C463  1  0.54794222  0.10770710  0.88145195  1
  C  C464  1  0.66429280  0.27012656  0.80424819  1
  C  C465  1  0.96690178  0.17497925  0.88493963  1
  H  H466  1  0.69223230  0.23843943  0.82437270  1
  C  C467  1  0.60647722  0.26482186  0.90315705  1
  O  O468  1  0.63908413  0.22962661  0.92605373  1
  H  H469  1  0.63295241  0.13346277  0.85395314  1
  O  O470  1  0.79930841  0.08374284  0.96103216  1
  H  H471  1  0.70467070  0.03859287  0.79564442  1
  C  C472  1  0.95865740  0.20567618  0.82389091  1
  C  C473  1  0.78134267  0.03033243  0.97556312  1
  O  O474  1  0.77629561  0.11444438  0.81330897  1
  C  C475  1  0.78861806  0.01183363  0.80044272  1
  C  C476  1  0.59229014  0.35151506  0.75577993  1
  O  O477  1  0.53471220  0.16331439  0.97404959  1
  O  O478  1  0.75880231  0.00089592  0.93624547  1
  C  C479  1  0.99798682  0.24948216  0.81144143  1
  C  C480  1  0.73225449  0.00088029  0.79196650  1
  C  C481  1  0.98613762  0.27920721  0.75622986  1
  O  O482  1  0.50727454  0.40454314  0.75783231  1
  C  C483  1  0.53515765  0.07218092  0.75318347  1
  C  C484  1  0.78041052  0.95016286  0.05196505  1
  C  C485  1  0.79103638  0.93506250  0.11703655  1
  O  O486  1  0.81696976  0.85934768  0.18538205  1
  C  C487  1  0.78738921  0.87290959  0.13447823  1
  O  O488  1  0.56361822  0.83326830  0.08483285  1
  C  C489  1  0.51473938  0.81820798  0.09330909  1
  C  C490  1  0.53381248  0.79520181  0.21025173  1
  H  H491  1  0.81642727  0.95940483  0.21405727  1
  O  O492  1  0.77817928  0.83850876  0.09467317  1
  C  C493  1  0.80740710  0.97128663  0.16444003  1
  Cu  Cu494  1  0.89914250  0.85721909  0.18400619  1
  O  O495  1  0.97352386  0.83987977  0.16697114  1
  H  H496  1  0.96868943  0.81718138  0.05130557  1
  H  H497  1  0.57912488  0.79815928  0.20575839  1
  H  H498  1  0.76538220  0.91922990  0.01799112  1
  O  O499  1  0.90067367  0.92166062  0.24335092  1
  C  C500  1  0.99699360  0.85406776  0.03757884  1
  O  O501  1  0.92706653  0.65367272  0.45776680  1
  H  H502  1  0.81728296  0.90725474  0.31411673  1
  O  O503  1  0.91966032  0.75180555  0.37276921  1
  C  C504  1  0.85312382  0.88718818  0.47046116  1
  C  C505  1  0.82062936  0.88892833  0.41556372  1
  O  O506  1  0.60379983  0.77677765  0.31535804  1
  O  O507  1  0.62105080  0.85389633  0.41759245  1
  O  O508  1  0.93884337  0.72233706  0.27760635  1
  C  C509  1  0.84439449  0.90728464  0.35910383  1
  O  O510  1  0.52973926  0.74902845  0.37305710  1
  H  H511  1  0.98145927  0.93000760  0.40788653  1
  Cu  Cu512  1  0.53909590  0.75698164  0.45617091  1
  Cu  Cu513  1  0.66178489  0.82599661  0.34701344  1
  O  O514  1  0.72960256  0.87206108  0.37092024  1
  C  C515  1  0.76116647  0.86916698  0.41904381  1
  C  C516  1  0.51229722  0.78186675  0.27138255  1
  C  C517  1  0.97549792  0.67520552  0.48013666  1
  O  O518  1  0.53338815  0.83840170  0.45223254  1
  C  C519  1  0.55057511  0.77202876  0.32390815  1
  C  C520  1  0.90253928  0.91793491  0.35675498  1
  H  H521  1  0.64210421  0.94504504  0.35967034  1
  O  O522  1  0.81317121  0.64492512  0.43088816  1
  C  C523  1  0.57031951  0.86980807  0.42518211  1
  C  C524  1  0.93635047  0.92093619  0.41209280  1
  C  C525  1  0.92889975  0.92966183  0.29474703  1
  Cu  Cu526  1  0.86915528  0.69813091  0.41043079  1
  O  O527  1  0.74296866  0.84722846  0.46963482  1
  C  C528  1  0.55870094  0.92512990  0.39680582  1
  C  C529  1  0.95405488  0.74122972  0.32749686  1
  O  O530  1  0.97847938  0.94754189  0.29388121  1
  C  C531  1  0.59874510  0.95920886  0.36494296  1
  H  H532  1  0.87549514  0.57830859  0.46274281  1
  C  C533  1  0.91071817  0.90191654  0.46656660  1
  H  H534  1  0.74004317  0.98757067  0.46213130  1
  H  H535  1  0.99986477  0.79896925  0.42327020  1
  C  C536  1  0.50400664  0.94767084  0.40048437  1
  C  C537  1  0.78250676  0.63513987  0.48361846  1
  C  C538  1  0.77708550  0.99931667  0.49232875  1
  H  H539  1  0.98935839  0.57937006  0.41043780  1
  O  O540  1  0.74093241  0.66151545  0.49262093  1
  C  C541  1  0.79651220  0.51028708  0.60149551  1
  O  O542  1  0.69216584  0.93723923  0.54425422  1
  H  H543  1  0.72007054  0.75007735  0.61017888  1
  C  C544  1  0.71504785  0.67613318  0.67247179  1
  C  C545  1  0.69304813  0.71545853  0.62865332  1
  O  O546  1  0.91492470  0.88320653  0.57065827  1
  C  C547  1  0.68039881  0.63271661  0.69709862  1
  H  H548  1  0.82718028  0.98724553  0.64890800  1
  H  H549  1  0.73408397  0.57766395  0.59112463  1
  O  O550  1  0.56740916  0.75354164  0.54780118  1
  C  C551  1  0.60256312  0.66707350  0.62713637  1
  C  C552  1  0.63848478  0.71109263  0.60507348  1
  C  C553  1  0.73514962  0.95181013  0.58195745  1
  C  C554  1  0.59041225  0.58000820  0.69046857  1
  H  H555  1  0.55633434  0.66350856  0.61090125  1
  O  O556  1  0.74004482  0.93142138  0.63379936  1
  C  C557  1  0.62567821  0.62901811  0.67155506  1
  C  C558  1  0.77456422  0.55945312  0.57329006  1
  O  O559  1  0.65719781  0.78251500  0.52959297  1
  C  C560  1  0.61878986  0.75290895  0.55867801  1
  O  O561  1  0.53918994  0.58538482  0.67793102  1
  H  H562  1  0.83385753  0.87518108  0.51583963  1
  O  O563  1  0.60997130  0.53486449  0.71618810  1
  C  C564  1  0.87382234  0.50738054  0.52839331  1
  Cu  Cu565  1  0.67451889  0.86175195  0.52674417  1
  H  H566  1  0.96706182  0.55310616  0.71892038  1
  C  C567  1  0.76858398  0.68340858  0.70611397  1
  O  O568  1  0.97735605  0.71005800  0.52089576  1
  C  C569  1  0.94301230  0.90052562  0.52833919  1
  O  O570  1  0.80114742  0.72213567  0.68410647  1
  O  O571  1  0.89369648  0.62550465  0.71904713  1
  C  C572  1  0.78542357  0.98362307  0.55659243  1
  O  O573  1  0.71093945  0.50106255  0.65997464  1
  C  C574  1  0.82746199  0.99923966  0.59822820  1
  Cu  Cu575  1  0.50055595  0.62191222  0.74718515  1
  C  C576  1  0.80325103  0.58351100  0.52173540  1
  O  O577  1  0.99300713  0.92092943  0.53353334  1
  Cu  Cu578  1  0.86789792  0.75519653  0.72033885  1
  H  H579  1  0.69808843  0.59874428  0.73001941  1
  C  C580  1  0.93231232  0.65725324  0.74257440  1
  C  C581  1  0.85465686  0.55893585  0.50333155  1
  Cu  Cu582  1  0.60960806  0.81032775  0.79725203  1
  C  C583  1  0.54617794  0.55934561  0.84973013  1
  C  C584  1  0.81068920  0.91243326  0.78288323  1
  O  O585  1  0.61355228  0.77139928  0.87245538  1
  O  O586  1  0.80377850  0.58767316  0.85553939  1
  C  C587  1  0.70198797  0.58599546  0.87362319  1
  C  C588  1  0.75873239  0.55628206  0.86051655  1
  O  O589  1  0.95365260  0.78381131  0.93895679  1
  C  C590  1  0.65290955  0.67284981  0.88401114  1
  C  C591  1  0.70547472  0.64520420  0.87965752  1
  O  O592  1  0.83380793  0.81825316  0.76494937  1
  C  C593  1  0.59945041  0.64584161  0.88279763  1
  C  C594  1  0.65733101  0.73857878  0.88471977  1
  H  H595  1  0.74582602  0.66903329  0.88374345  1
  C  C596  1  0.82858182  0.96650601  0.79977385  1
  C  C597  1  0.65167683  0.55723201  0.86769457  1
  C  C598  1  0.98216448  0.63169015  0.77090116  1
  C  C599  1  0.60059475  0.58691155  0.86808494  1
  O  O600  1  0.77823121  0.65515267  0.75547229  1
  C  C601  1  0.75409684  0.90126394  0.76965922  1
  H  H602  1  0.55970481  0.67091263  0.88566901  1
  O  O603  1  0.70211463  0.76107072  0.89047568  1
  O  O604  1  0.75629106  0.50616591  0.85297157  1
  O  O605  1  0.90727758  0.87589881  0.77690078  1
  O  O606  1  0.54236264  0.50599511  0.84370142  1
  H  H607  1  0.65164441  0.51054073  0.85474379  1
  C  C608  1  0.98895606  0.81704330  0.92611132  1
  H  H609  1  0.73874294  0.85690218  0.75207661  1
  Cu  Cu610  1  0.84192343  0.60976279  0.78504311  1
  H  H611  1  0.87373384  0.96939899  0.80866874  1
  C  C612  1  0.71515979  0.94414882  0.77994075  1
  O  O613  1  0.53784739  0.68838344  0.77617493  1
  C  C614  1  0.85724691  0.86825862  0.77221841  1
  O  O615  1  0.62087501  0.95851767  0.77860439  1
  O  O616  1  0.50608258  0.58979841  0.83086895  1
  C  C617  1  0.65576877  0.92234162  0.76902512  1
  H  H618  1  0.99496593  0.70360221  0.83400066  1
  O  O619  1  0.92347330  0.71064108  0.75303220  1
  C  C620  1  0.99351851  0.57384744  0.75454766  1
  C  C621  1  0.51664890  0.73754290  0.76958370  1
  O  O622  1  0.54531061  0.78094420  0.75784609  1
  O  O623  1  0.64126027  0.87056874  0.75417010  1
