# generated using pymatgen
data_ZnH3(C3O2)3
_symmetry_space_group_name_H-M   'P 1'
_cell_length_a   17.47521060
_cell_length_b   6.15741783
_cell_length_c   15.17232966
_cell_angle_alpha   90.00000000
_cell_angle_beta   90.00000000
_cell_angle_gamma   90.00000000
_symmetry_Int_Tables_number   1
_chemical_formula_structural   ZnH3(C3O2)3
_chemical_formula_sum   'Zn8 H24 C72 O48'
_cell_volume   1632.57564508
_cell_formula_units_Z   8
loop_
 _symmetry_equiv_pos_site_id
 _symmetry_equiv_pos_as_xyz
  1  'x, y, z'
loop_
 _atom_site_type_symbol
 _atom_site_label
 _atom_site_symmetry_multiplicity
 _atom_site_fract_x
 _atom_site_fract_y
 _atom_site_fract_z
 _atom_site_occupancy
  C  C0  1  0.06830726  0.27394084  0.33481275  1
  H  H1  1  0.17164762  0.26221711  0.25483256  1
  C  C2  1  0.10921849  0.27038845  0.25517469  1
  O  O3  1  0.18024457  0.23708198  0.09297755  1
  C  C4  1  0.06856176  0.24885027  0.17747155  1
  C  C5  1  0.10889998  0.23835655  0.08908913  1
  C  C6  1  0.10635988  0.27050737  0.41910883  1
  O  O7  1  0.17730245  0.28954633  0.41527377  1
  O  O8  1  0.07250584  0.25382517  0.01970896  1
  O  O9  1  0.06761109  0.26402662  0.49025820  1
  H  H10  1  0.19709816  0.28120015  0.60655544  1
  H  H11  1  0.20249094  0.29747348  0.89330170  1
  C  C12  1  0.19428398  0.28643833  0.75042870  1
  O  O13  1  0.08179132  0.28475204  0.82797279  1
  O  O14  1  0.06945388  0.28754979  0.68387891  1
  C  C15  1  0.10883274  0.29021850  0.75252077  1
  C  C16  1  0.23445158  0.28735744  0.82949430  1
  C  C17  1  0.23010557  0.27768234  0.66895664  1
  Zn  Zn18  1  0.02028467  0.04174512  0.91253010  1
  C  C19  1  0.06339496  0.76308711  0.32325598  1
  C  C20  1  0.19120345  0.79585980  0.24578959  1
  C  C21  1  0.06677480  0.77428856  0.16629781  1
  H  H22  1  0.09489868  0.76819820  0.38848763  1
  C  C23  1  0.10635218  0.77415729  0.24561759  1
  H  H24  1  0.09381766  0.79834616  0.10121220  1
  O  O25  1  0.22634561  0.79160288  0.31601627  1
  O  O26  1  0.22120940  0.81648347  0.16921260  1
  O  O27  1  0.12695704  0.83520751  0.91187434  1
  H  H28  1  0.13325645  0.82606749  0.74870036  1
  C  C29  1  0.19605070  0.79938280  0.91377993  1
  C  C30  1  0.19565702  0.80118795  0.75436308  1
  O  O31  1  0.11574077  0.77796238  0.58857675  1
  O  O32  1  0.23406460  0.79479646  0.98334329  1
  C  C33  1  0.18811859  0.77937781  0.59045302  1
  C  C34  1  0.23852403  0.78034230  0.82943161  1
  C  C35  1  0.23454982  0.76364006  0.67348867  1
  O  O36  1  0.22301175  0.81016656  0.52223360  1
  Zn  Zn37  1  0.02368498  0.51434504  0.58226672  1
  H  H38  1  0.45897536  0.29119120  0.10064575  1
  O  O39  1  0.32588175  0.27695504  0.32304118  1
  C  C40  1  0.44635324  0.26752374  0.24266145  1
  H  H41  1  0.45594224  0.30109367  0.38428396  1
  O  O42  1  0.32446396  0.30087485  0.18029463  1
  C  C43  1  0.35912407  0.27641178  0.24986112  1
  C  C44  1  0.48743167  0.26928648  0.16599789  1
  C  C45  1  0.48793678  0.29225078  0.32329914  1
  Zn  Zn46  1  0.28206298  0.02150226  0.07950391  1
  Zn  Zn47  1  0.27533455  0.03667575  0.41951700  1
  C  C48  1  0.35389492  0.28534037  0.58813668  1
  O  O49  1  0.42499100  0.28427096  0.59195403  1
  C  C50  1  0.30925400  0.27940723  0.67122908  1
  C  C51  1  0.35307684  0.27518035  0.74887286  1
  C  C52  1  0.31429927  0.28887736  0.82866587  1
  O  O53  1  0.43060245  0.28847503  0.91038931  1
  C  C54  1  0.36023790  0.28704719  0.91263119  1
  H  H55  1  0.41531658  0.27623158  0.74831684  1
  O  O56  1  0.32125897  0.28596286  0.51276962  1
  O  O57  1  0.32981063  0.27606097  0.98876984  1
  O  O58  1  0.37265071  0.78816688  0.41500670  1
  C  C59  1  0.44230044  0.80635461  0.41779924  1
  H  H60  1  0.38568163  0.80052780  0.25734053  1
  O  O61  1  0.49030514  0.78445903  0.01872041  1
  C  C62  1  0.44775892  0.79370981  0.25594666  1
  C  C63  1  0.45521181  0.78247901  0.08785039  1
  O  O64  1  0.38291800  0.78452458  0.09520701  1
  O  O65  1  0.47461489  0.78552697  0.49242511  1
  C  C66  1  0.48996160  0.79570232  0.33551367  1
  C  C67  1  0.49146779  0.78487794  0.17934551  1
  C  C68  1  0.43914681  0.74956065  0.74711738  1
  H  H69  1  0.33814496  0.73388059  0.60221219  1
  O  O70  1  0.47174821  0.74773555  0.67239128  1
  H  H71  1  0.35188719  0.77571474  0.89209026  1
  C  C72  1  0.31927870  0.77127405  0.82671168  1
  C  C73  1  0.31341059  0.75416585  0.66615762  1
  C  C74  1  0.35458737  0.75240175  0.74627572  1
  O  O75  1  0.47509655  0.74508386  0.81789050  1
  C  C76  1  0.60809371  0.30598631  0.41562334  1
  C  C77  1  0.56729392  0.27409499  0.17227828  1
  C  C78  1  0.61080838  0.27283324  0.25000647  1
  H  H79  1  0.67286712  0.25840820  0.25225782  1
  C  C80  1  0.56816320  0.28313294  0.32792970  1
  C  C81  1  0.61161863  0.28065667  0.08611968  1
  O  O82  1  0.68271115  0.26221102  0.09329161  1
  O  O83  1  0.67760833  0.32629119  0.42310902  1
  O  O84  1  0.56663259  0.29993266  0.48288591  1
  O  O85  1  0.57802662  0.29242660  0.01475438  1
  H  H86  1  0.69247062  0.24791600  0.88220426  1
  O  O87  1  0.56996822  0.28781862  0.81780736  1
  O  O88  1  0.57634071  0.27518562  0.67398338  1
  C  C89  1  0.69330022  0.27289809  0.73768507  1
  C  C90  1  0.60731278  0.28946582  0.74747073  1
  H  H91  1  0.69653631  0.28646428  0.59335288  1
  C  C92  1  0.72746754  0.28461917  0.65632663  1
  C  C93  1  0.72699181  0.26510513  0.82177778  1
  C  C94  1  0.60946419  0.80547292  0.25625702  1
  H  H95  1  0.60046188  0.76458565  0.11356425  1
  C  C96  1  0.69565106  0.79680212  0.25687289  1
  H  H97  1  0.60485246  0.82746514  0.39600886  1
  C  C98  1  0.57018016  0.78936929  0.17505349  1
  C  C99  1  0.56930157  0.82333656  0.33454623  1
  O  O100  1  0.73603685  0.77343219  0.32345416  1
  O  O101  1  0.72590975  0.81453076  0.18335470  1
  C  C102  1  0.68488855  0.80750016  0.91378139  1
  O  O103  1  0.62175465  0.78442684  0.59589246  1
  H  H104  1  0.62928718  0.81412564  0.74852486  1
  C  C105  1  0.69312255  0.79659204  0.75361679  1
  C  C106  1  0.69162661  0.76843564  0.59009438  1
  O  O107  1  0.61260733  0.80183725  0.90697510  1
  O  O108  1  0.71479393  0.78407084  0.98590116  1
  C  C109  1  0.73385252  0.79224898  0.83101412  1
  C  C110  1  0.73478411  0.78514733  0.67377991  1
  Zn  Zn111  1  0.52667140  0.54046772  0.92095321  1
  O  O112  1  0.72230867  0.76902467  0.51319523  1
  Zn  Zn113  1  0.52416080  0.52284415  0.58462953  1
  O  O114  1  0.82819267  0.28587403  0.31538046  1
  C  C115  1  0.86302421  0.27585831  0.24315691  1
  O  O116  1  0.83121657  0.27468760  0.17057006  1
  C  C117  1  0.94950986  0.27117114  0.25115782  1
  H  H118  1  0.95617471  0.25724027  0.11001962  1
  H  H119  1  0.95490333  0.29341449  0.39154407  1
  C  C120  1  0.98837587  0.27720764  0.33116796  1
  C  C121  1  0.98870797  0.25376285  0.17204525  1
  Zn  Zn122  1  0.77563339  0.01617483  0.08160353  1
  C  C123  1  0.80679563  0.28467646  0.66218024  1
  O  O124  1  0.92395070  0.27735758  0.90948934  1
  C  C125  1  0.85391800  0.28474926  0.58184488  1
  C  C126  1  0.84617222  0.28391784  0.74488652  1
  O  O127  1  0.92362902  0.28212506  0.59737062  1
  C  C128  1  0.80622335  0.26385370  0.82424187  1
  H  H129  1  0.90686550  0.29908228  0.74511909  1
  C  C130  1  0.85166692  0.26908208  0.90610812  1
  O  O131  1  0.81097952  0.25131967  0.97278138  1
  O  O132  1  0.83141599  0.29459067  0.50203289  1
  O  O133  1  0.87410565  0.78915282  0.07843845  1
  C  C134  1  0.94558649  0.79796794  0.08113572  1
  O  O135  1  0.87607617  0.74666202  0.42496305  1
  C  C136  1  0.94238061  0.77659270  0.24522060  1
  H  H137  1  0.87739899  0.77241321  0.23648330  1
  C  C138  1  0.94740307  0.74584145  0.41477914  1
  C  C139  1  0.98731448  0.78247886  0.16772885  1
  C  C140  1  0.98359379  0.75480625  0.32331477  1
  O  O141  1  0.99328022  0.77245271  0.47359882  1
  O  O142  1  0.98385756  0.78816855  0.01266260  1
  Zn  Zn143  1  0.78186066  0.53278940  0.41554858  1
  C  C144  1  0.84906346  0.76982537  0.75708888  1
  H  H145  1  0.84794680  0.78543690  0.60875847  1
  H  H146  1  0.83942160  0.75456598  0.90750365  1
  C  C147  1  0.81374243  0.78315983  0.67345477  1
  O  O148  1  0.96426608  0.73381254  0.68402853  1
  C  C149  1  0.81390261  0.76822071  0.83907993  1
  C  C150  1  0.93532895  0.76767848  0.75700952  1
  O  O151  1  0.97253211  0.78338541  0.82821066  1
