# generated using pymatgen
data_CuH12C20NO4
_symmetry_space_group_name_H-M   'P 1'
_cell_length_a   25.25871835
_cell_length_b   11.48811104
_cell_length_c   27.07840999
_cell_angle_alpha   90.00000000
_cell_angle_beta   90.00000000
_cell_angle_gamma   90.00000000
_symmetry_Int_Tables_number   1
_chemical_formula_structural   CuH12C20NO4
_chemical_formula_sum   'Cu16 H192 C320 N16 O64'
_cell_volume   7857.47656639
_cell_formula_units_Z   16
loop_
 _symmetry_equiv_pos_site_id
 _symmetry_equiv_pos_as_xyz
  1  'x, y, z'
loop_
 _atom_site_type_symbol
 _atom_site_label
 _atom_site_symmetry_multiplicity
 _atom_site_fract_x
 _atom_site_fract_y
 _atom_site_fract_z
 _atom_site_occupancy
  C  C0  1  0.15151745  0.18591115  0.17732515  1
  C  C1  1  0.20346321  0.21025036  0.15523382  1
  C  C2  1  0.13770492  0.23183655  0.22446113  1
  C  C3  1  0.06208566  0.10654216  0.17006305  1
  C  C4  1  0.11146616  0.12354181  0.15172736  1
  H  H5  1  0.11765948  0.08797817  0.11340316  1
  H  H6  1  0.16080842  0.30550937  0.04767432  1
  C  C7  1  0.04825068  0.15499021  0.21790465  1
  O  O8  1  0.21667976  0.16767729  0.11429296  1
  C  C9  1  0.19972574  0.33909788  0.03627662  1
  C  C10  1  0.23794097  0.37432596  0.06902710  1
  H  H11  1  0.23110333  0.37621763  0.10948364  1
  O  O12  1  0.23600928  0.27016306  0.18132545  1
  H  H13  1  0.12094179  0.45142785  0.02674207  1
  H  H14  1  0.20729653  0.05454786  0.20778124  1
  H  H15  1  0.02301729  0.44842638  0.03698725  1
  H  H16  1  0.02848994  0.06879572  0.14655745  1
  O  O17  1  0.03881410  0.08737081  0.02294488  1
  C  C18  1  0.04303096  0.40206656  0.00591915  1
  C  C19  1  0.39655303  0.02577870  0.21836087  1
  H  H20  1  0.38342099  0.04448526  0.17847952  1
  H  H21  1  0.13367015  0.11360603  0.00655348  1
  C  C22  1  0.44866231  0.12743308  0.04314184  1
  C  C23  1  0.32835473  0.42603081  0.09032893  1
  C  C24  1  0.49545909  0.14393595  0.01699155  1
  O  O25  1  0.35656661  0.10466401  0.09737121  1
  C  C26  1  0.38976845  0.18334600  0.11320756  1
  Cu  Cu27  1  0.28789090  0.12573576  0.10714460  1
  Cu  Cu28  1  0.31034483  0.27539364  0.17051395  1
  C  C29  1  0.43775231  0.19865598  0.08537577  1
  C  C30  1  0.47330671  0.28599666  0.10266196  1
  C  C31  1  0.29094000  0.39032812  0.05006235  1
  H  H32  1  0.41767159  0.06481243  0.03281924  1
  O  O33  1  0.38098825  0.24330775  0.15102478  1
  O  O34  1  0.31300252  0.42119359  0.13708635  1
  H  H35  1  0.46032967  0.34946834  0.13317100  1
  C  C36  1  0.08719563  0.21841028  0.24500628  1
  C  C37  1  0.09727335  0.39822647  0.00034748  1
  O  O38  1  0.36952184  0.47268416  0.07682905  1
  C  C39  1  0.44795906  0.04753060  0.23165458  1
  H  H40  1  0.47456400  0.07472234  0.19882227  1
  H  H41  1  0.16689573  0.28619104  0.24658423  1
  C  C42  1  0.30824367  0.38426421  0.00058799  1
  Cu  Cu43  1  0.06288746  0.34409042  0.38180042  1
  O  O44  1  0.11727327  0.26442548  0.35640874  1
  C  C45  1  0.16793908  0.29664317  0.35650457  1
  O  O46  1  0.18232723  0.38590286  0.37410533  1
  H  H47  1  0.16746675  0.18294852  0.45174416  1
  C  C48  1  0.20851497  0.21616478  0.33354734  1
  O  O49  1  0.07319587  0.28501152  0.44611140  1
  H  H50  1  0.14227332  0.10343022  0.31969888  1
  C  C51  1  0.18545935  0.11826804  0.31396267  1
  H  H52  1  0.07900000  0.25239009  0.28297725  1
  C  C53  1  0.26412666  0.23875215  0.32974198  1
  H  H54  1  0.23734726  0.43034637  0.29400139  1
  H  H55  1  0.01502703  0.09930283  0.40466028  1
  H  H56  1  0.13921254  0.47360140  0.27755277  1
  C  C57  1  0.21565911  0.03773244  0.28784756  1
  O  O58  1  0.00531722  0.43077317  0.40155059  1
  H  H59  1  0.33609627  0.18365833  0.29545388  1
  C  C60  1  0.46240081  0.02320158  0.28004315  1
  H  H61  1  0.05500294  0.10922540  0.31941698  1
  H  H62  1  0.27908181  0.31353734  0.34549249  1
  C  C63  1  0.29319035  0.16588228  0.29928602  1
  C  C64  1  0.27046303  0.06205599  0.27846222  1
  C  C65  1  0.17722159  0.22614391  0.48820101  1
  C  C66  1  0.01029378  0.11862757  0.32336124  1
  C  C67  1  0.08538633  0.33748112  0.48774419  1
  H  H68  1  0.27643234  0.43052837  0.48886534  1
  C  C69  1  0.14465925  0.36377171  0.55463015  1
  C  C70  1  0.19095607  0.20744423  0.66449465  1
  H  H71  1  0.16221997  0.18467592  0.63681756  1
  C  C72  1  0.17509025  0.23009370  0.71254696  1
  C  C73  1  0.18798620  0.33546848  0.58353997  1
  H  H74  1  0.19753750  0.38978072  0.61457406  1
  C  C75  1  0.22374728  0.24823574  0.56750860  1
  C  C76  1  0.21959322  0.19764562  0.51845582  1
  H  H77  1  0.13291000  0.22698297  0.72065979  1
  H  H78  1  0.11274949  0.42129340  0.56560323  1
  O  O79  1  0.10933146  0.48746669  0.73133715  1
  C  C80  1  0.13856147  0.30370742  0.50999102  1
  H  H81  1  0.19397646  0.00894083  0.56524835  1
  C  C82  1  0.33560149  0.17530559  0.54205385  1
  H  H83  1  0.41262969  0.17935749  0.51043946  1
  C  C84  1  0.30883012  0.47248850  0.51227864  1
  H  H85  1  0.20616799  0.05522920  0.71669848  1
  C  C86  1  0.40456465  0.35317002  0.63458328  1
  C  C87  1  0.22170301  0.48930698  0.71797963  1
  C  C88  1  0.27519274  0.48240490  0.70529621  1
  C  C89  1  0.27004351  0.24155821  0.73950752  1
  C  C90  1  0.24608668  0.21522824  0.65320378  1
  C  C91  1  0.43487067  0.26542620  0.65620641  1
  O  O92  1  0.48404502  0.08420624  0.70513648  1
  C  C93  1  0.38768162  0.05618643  0.62253524  1
  H  H94  1  0.39501812  0.35177674  0.59358224  1
  C  C95  1  0.33317903  0.08217011  0.62315432  1
  H  H96  1  0.32705617  0.23497294  0.67828828  1
  C  C97  1  0.31023568  0.45890394  0.56260793  1
  H  H98  1  0.30349484  0.43940465  0.72762454  1
  H  H99  1  0.45376879  0.19624124  0.63395581  1
  C  C100  1  0.30555006  0.15011109  0.58666176  1
  C  C101  1  0.38428625  0.44734616  0.66353134  1
  H  H102  1  0.28478878  0.39277362  0.58056596  1
  O  O103  1  0.49367464  0.01154505  0.61237474  1
  C  C104  1  0.41909878  0.35439198  0.73764847  1
  C  C105  1  0.47300541  0.06778862  0.57858295  1
  C  C106  1  0.39214614  0.44840736  0.71691613  1
  H  H107  1  0.31724435  0.22440330  0.51023943  1
  C  C108  1  0.28598439  0.22258403  0.69110899  1
  C  C109  1  0.41613314  0.09607120  0.58125632  1
  C  C110  1  0.47175205  0.17613584  0.73316896  1
  H  H111  1  0.30836267  0.04472054  0.65462266  1
  N  N112  1  0.25987407  0.20796839  0.60288379  1
  C  C113  1  0.43988799  0.26867461  0.70738304  1
  C  C114  1  0.38790005  0.14906416  0.54122443  1
  Cu  Cu115  1  0.03868758  0.46585814  0.71916297  1
  O  O116  1  0.05449593  0.39950769  0.50791881  1
  H  H117  1  0.24680037  0.12755504  0.50895692  1
  C  C118  1  0.08570737  0.29041404  0.92520270  1
  C  C119  1  0.18901896  0.30065686  0.89870674  1
  N  N120  1  0.17572121  0.32828886  0.94745136  1
  C  C121  1  0.12191654  0.34269319  0.95857741  1
  C  C122  1  0.16311397  0.34065854  0.81549896  1
  C  C123  1  0.15247580  0.35269357  0.86476446  1
  C  C124  1  0.20623601  0.26442016  0.80495784  1
  H  H125  1  0.09980554  0.23811573  0.89281684  1
  H  H126  1  0.11921149  0.40778779  0.87906772  1
  C  C127  1  0.23308846  0.22399638  0.88807451  1
  H  H128  1  0.14025629  0.38876874  0.78587830  1
  C  C129  1  0.03233750  0.29351438  0.93020816  1
  C  C130  1  0.23951428  0.19817124  0.83758095  1
  C  C131  1  0.21447299  0.34263144  0.98429373  1
  H  H132  1  0.18853549  0.07356052  0.80859078  1
  C  C133  1  0.13278449  0.05510973  0.97252465  1
  C  C134  1  0.17837961  0.02413533  0.94758817  1
  H  H135  1  0.21618608  0.06313103  0.95765228  1
  H  H136  1  0.42701471  0.34256148  0.77927484  1
  C  C137  1  0.08541298  0.01300653  0.95317627  1
  H  H138  1  0.00695365  0.24145993  0.90847100  1
  O  O139  1  0.48068363  0.17669556  0.77571962  1
  H  H140  1  0.27195741  0.14860183  0.82468834  1
  H  H141  1  0.25958768  0.19678983  0.91626785  1
  C  C142  1  0.26722261  0.36190713  0.96760749  1
  C  C143  1  0.35903335  0.40154624  0.84946346  1
  O  O144  1  0.34792030  0.32973991  0.81853048  1
  H  H145  1  0.26810246  0.40790186  0.81406968  1
  H  H146  1  0.34945009  0.39427517  0.99029787  1
  H  H147  1  0.27721463  0.35182913  0.93019035  1
  H  H148  1  0.30058460  0.25028819  0.77112371  1
  O  O149  1  0.40463751  0.40607831  0.87200216  1
  C  C150  1  0.00996780  0.34515321  0.97196123  1
  C  C151  1  0.03624633  0.04109134  0.98310280  1
  Cu  Cu152  1  0.46124648  0.49638770  0.84680034  1
  C  C153  1  0.27131790  0.47214476  0.84512061  1
  C  C154  1  0.32048018  0.48942637  0.86811771  1
  H  H155  1  0.20605700  0.45027975  0.75111982  1
  C  C156  1  0.21409655  0.24954421  0.75067342  1
  H  H157  1  0.15953937  0.92843642  0.05517060  1
  C  C158  1  0.22535265  0.80160532  0.06854486  1
  C  C159  1  0.21214022  0.93512687  0.14358266  1
  C  C160  1  0.18028495  0.84406105  0.04166018  1
  C  C161  1  0.24291753  0.84756850  0.11807027  1
  C  C162  1  0.25224430  0.69734967  0.05396711  1
  N  N163  1  0.30386231  0.99582925  0.24718779  1
  H  H164  1  0.17455920  0.96970041  0.12615466  1
  H  H165  1  0.17975478  0.82173327  0.22571580  1
  O  O166  1  0.08087061  0.77395444  0.24510655  1
  C  C167  1  0.09816204  0.66554337  0.24713883  1
  C  C168  1  0.16513097  0.77782355  0.00098228  1
  C  C169  1  0.24357753  0.64760648  0.00843379  1
  O  O170  1  0.41420331  0.87958557  0.02512093  1
  H  H171  1  0.28217544  0.65874034  0.07804704  1
  C  C172  1  0.29462406  0.81622940  0.13510899  1
  O  O173  1  0.48275131  0.71190835  0.11401738  1
  H  H174  1  0.40699358  0.59272701  0.14032902  1
  O  O175  1  0.06559743  0.58959641  0.24230392  1
  Cu  Cu176  1  0.45007900  0.79767000  0.06840817  1
  C  C177  1  0.43719665  0.75774557  0.24412619  1
  C  C178  1  0.48372313  0.74272178  0.16120569  1
  C  C179  1  0.28166182  0.94768516  0.20404486  1
  H  H180  1  0.31824211  0.75360426  0.11341261  1
  C  C181  1  0.31322764  0.86359624  0.17884872  1
  H  H182  1  0.32444754  0.86858985  0.01847084  1
  H  H183  1  0.35122063  0.83125978  0.19401159  1
  H  H184  1  0.33496045  0.53388091  0.19393162  1
  C  C185  1  0.43815816  0.71457354  0.19403250  1
  C  C186  1  0.36008900  0.60603206  0.20786290  1
  C  C187  1  0.40067052  0.63361292  0.17643703  1
  C  C188  1  0.23041824  0.98425959  0.18751579  1
  H  H189  1  0.27925719  0.77429930  0.24365051  1
  C  C190  1  0.24669166  0.71469273  0.24825235  1
  C  C191  1  0.19357268  0.73836311  0.24036410  1
  C  C192  1  0.18825362  0.90729821  0.40523666  1
  C  C193  1  0.13995378  0.86675384  0.42701523  1
  O  O194  1  0.10382142  0.86562482  0.34698088  1
  O  O195  1  0.04975977  0.82864493  0.40885445  1
  C  C196  1  0.09459951  0.85276323  0.39242546  1
  C  C197  1  0.22968903  0.93356823  0.43495775  1
  H  H198  1  0.09459634  0.81480619  0.48895759  1
  Cu  Cu199  1  0.05237591  0.86213796  0.29614119  1
  C  C200  1  0.13318502  0.84561982  0.47709394  1
  C  C201  1  0.22563165  0.89660192  0.48648007  1
  Cu  Cu202  1  0.01285094  0.71121065  0.37745298  1
  H  H203  1  0.18968477  0.92752153  0.36529894  1
  H  H204  1  0.19954110  0.95971013  0.26917252  1
  H  H205  1  0.29977881  0.78588735  0.42271654  1
  C  C206  1  0.26238963  0.60360591  0.26863501  1
  C  C207  1  0.33018093  0.83065157  0.44376426  1
  C  C208  1  0.22433295  0.51415309  0.27706744  1
  H  H209  1  0.46862501  0.81110931  0.25719467  1
  H  H210  1  0.23832068  0.62157193  0.35536754  1
  C  C211  1  0.42339087  0.85962464  0.45711010  1
  C  C212  1  0.17154040  0.53447072  0.26981462  1
  H  H213  1  0.41196064  0.56127792  0.32462971  1
  H  H214  1  0.41090081  0.67739574  0.49858894  1
  O  O215  1  0.48472580  0.82824836  0.39198802  1
  C  C216  1  0.27883093  0.59184522  0.36681078  1
  C  C217  1  0.15727777  0.64914348  0.25323272  1
  C  C218  1  0.32306707  0.57378235  0.33514563  1
  H  H219  1  0.26442816  0.98533677  0.42128357  1
  H  H220  1  0.39053585  0.77528170  0.38997581  1
  C  C221  1  0.37681144  0.56150294  0.35051938  1
  C  C222  1  0.38115784  0.81975094  0.42561226  1
  H  H223  1  0.39816406  0.75808037  0.31641636  1
  C  C224  1  0.47723269  0.85946891  0.43540522  1
  H  H225  1  0.25462244  0.59262076  0.44412147  1
  N  N226  1  0.31540860  0.59976165  0.28351622  1
  C  C227  1  0.39856358  0.72144785  0.27740879  1
  C  C228  1  0.35738319  0.64703396  0.25850225  1
  H  H229  1  0.44081344  0.99522236  0.35661615  1
  C  C230  1  0.33959421  0.55290782  0.43375446  1
  H  H231  1  0.42208243  0.57687668  0.41909483  1
  C  C232  1  0.37464784  0.98458571  0.30707792  1
  C  C233  1  0.28705375  0.57942592  0.41642425  1
  C  C234  1  0.32074183  0.88224643  0.49167751  1
  H  H235  1  0.34524620  0.96855587  0.33532802  1
  C  C236  1  0.38482075  0.55605511  0.40125717  1
  C  C237  1  0.35812451  0.99659271  0.25616045  1
  C  C238  1  0.42805847  0.99551850  0.31896899  1
  C  C239  1  0.34814471  0.54318642  0.48905008  1
  H  H240  1  0.17576038  0.64540309  0.61919778  1
  C  C241  1  0.20540390  0.60523237  0.64323520  1
  C  C242  1  0.23851135  0.87586564  0.72355315  1
  C  C243  1  0.21091504  0.94814192  0.63990315  1
  C  C244  1  0.22037653  0.96040337  0.58838987  1
  O  O245  1  0.09918654  0.58810541  0.66243639  1
  H  H246  1  0.17160286  0.83987977  0.54732027  1
  C  C247  1  0.21247400  0.98010662  0.74354923  1
  N  N248  1  0.27138372  0.90431992  0.51481073  1
  C  C249  1  0.12741801  0.54745185  0.69240863  1
  C  C250  1  0.18736657  0.54869001  0.68538506  1
  C  C251  1  0.24717120  0.88680840  0.66975227  1
  H  H252  1  0.17463990  0.98197577  0.65683378  1
  C  C253  1  0.25809170  0.59933896  0.63003089  1
  H  H254  1  0.45269334  0.92602607  0.52894976  1
  H  H255  1  0.40726030  0.99992941  0.65148610  1
  H  H256  1  0.27064562  0.69720211  0.74212728  1
  C  C257  1  0.38498678  0.61403730  0.51660309  1
  H  H258  1  0.36101627  0.95740196  0.55747733  1
  H  H259  1  0.31202291  0.75473924  0.66543543  1
  C  C260  1  0.36625567  0.91600620  0.52054820  1
  C  C261  1  0.29787870  0.83059319  0.59747967  1
  H  H262  1  0.27435015  0.64069627  0.59532058  1
  C  C263  1  0.26603668  0.90871247  0.56630105  1
  C  C264  1  0.29146142  0.82227563  0.64701997  1
  C  C265  1  0.38501913  0.60454895  0.56737046  1
  H  H266  1  0.32604057  0.77291419  0.57899433  1
  C  C267  1  0.29406143  0.54160638  0.66263205  1
  H  H268  1  0.41498895  0.65108609  0.59027250  1
  C  C269  1  0.34631157  0.52925118  0.59108301  1
  N  N270  1  0.34499000  0.51600508  0.64286985  1
  H  H271  1  0.37621706  0.51663661  0.74017466  1
  C  C272  1  0.17709063  0.85891763  0.50837258  1
  C  C273  1  0.41807647  0.89874833  0.50625654  1
  C  C274  1  0.10149924  0.64483615  0.82363790  1
  C  C275  1  0.14730808  0.65465048  0.90765901  1
  N  N276  1  0.19589248  0.65235182  0.93142493  1
  C  C277  1  0.14330581  0.67561189  0.85542957  1
  H  H278  1  0.17789269  0.70982193  0.83526151  1
  C  C279  1  0.05975004  0.59141076  0.85120274  1
  C  C280  1  0.10118238  0.60676670  0.93213078  1
  C  C281  1  0.24010040  0.61127384  0.90373315  1
  H  H282  1  0.10060051  0.65627485  0.78541484  1
  C  C283  1  0.07849267  0.94510138  0.90960948  1
  H  H284  1  0.12315482  0.88673420  0.84774611  1
  H  H285  1  0.23436952  0.88716641  0.97459584  1
  C  C286  1  0.22176444  0.89883845  0.82607126  1
  O  O287  1  0.01711366  0.56158077  0.77542094  1
  C  C288  1  0.12427581  0.92894082  0.88261534  1
  C  C289  1  0.22890119  0.53964670  0.86141287  1
  H  H290  1  0.03913386  0.91489421  0.89624982  1
  H  H291  1  0.10661654  0.58622034  0.97149843  1
  C  C292  1  0.17614167  0.96147491  0.90206215  1
  N  N293  1  0.22222031  0.92151536  0.87778340  1
  C  C294  1  0.05841563  0.57325965  0.90372364  1
  C  C295  1  0.20361381  0.99026914  0.79403511  1
  H  H296  1  0.12829603  0.79902788  0.97933046  1
  C  C297  1  0.19834284  0.68565954  0.98085264  1
  H  H298  1  0.18959697  0.52583652  0.84689524  1
  O  O299  1  0.45952379  0.88469995  0.95523074  1
  C  C300  1  0.24528176  0.79458744  0.80588846  1
  C  C301  1  0.02068631  0.53367866  0.81960244  1
  C  C302  1  0.25325332  0.78167721  0.75470984  1
  C  C303  1  0.31819599  0.91005043  0.87246949  1
  C  C304  1  0.32048594  0.89017197  0.97920172  1
  H  H305  1  0.29731098  0.72455142  0.94329424  1
  C  C306  1  0.41836848  0.88427608  0.97524355  1
  H  H307  1  0.40392595  0.90367908  0.87834130  1
  O  O308  1  0.47504897  0.77636423  0.83005638  1
  H  H309  1  0.31384750  0.91601900  0.83146598  1
  H  H310  1  0.25711819  0.72237883  0.83128361  1
  C  C311  1  0.33311695  0.57665898  0.90402534  1
  C  C312  1  0.29168667  0.64669870  0.91936556  1
  C  C313  1  0.36595653  0.89323848  0.94952375  1
  H  H314  1  0.37303192  0.58435610  0.92198773  1
  C  C315  1  0.27035526  0.91608620  0.90139145  1
  C  C316  1  0.27304208  0.90468205  0.95484341  1
  C  C317  1  0.36500694  0.90525687  0.89802694  1
  H  H318  1  0.02642512  0.52710970  0.91987467  1
  H  H319  1  0.26723623  0.57292528  0.99397306  1
  H  H320  1  0.54500258  0.37107616  0.08508376  1
  H  H321  1  0.60018699  0.25996740  0.10120716  1
  C  C322  1  0.67715836  0.34409858  0.10115336  1
  H  H323  1  0.68224842  0.35486742  0.14139801  1
  C  C324  1  0.71511706  0.37931639  0.06680904  1
  C  C325  1  0.63389796  0.29532060  0.07919205  1
  C  C326  1  0.53205508  0.23110419  0.03143165  1
  C  C327  1  0.71205662  0.37344414  0.01469526  1
  C  C328  1  0.62613657  0.28909397  0.02602925  1
  C  C329  1  0.69487685  0.10676141  0.12724111  1
  C  C330  1  0.68292922  0.06614503  0.07666700  1
  C  C331  1  0.66938283  0.04967043  0.21157427  1
  O  O332  1  0.77778559  0.44555241  0.12912477  1
  C  C333  1  0.73050679  0.06548122  0.04571608  1
  C  C334  1  0.74290613  0.15397538  0.14506594  1
  N  N335  1  0.99561339  0.14700369  0.23299876  1
  C  C336  1  0.65628945  0.06877219  0.16322156  1
  C  C337  1  0.51718713  0.30631001  0.07337189  1
  Cu  Cu338  1  0.86425609  0.41087357  0.03548369  1
  H  H339  1  0.76841353  0.10855034  0.05702879  1
  O  O340  1  0.84164886  0.26153915  0.05570059  1
  C  C341  1  0.91509990  0.05291869  0.12818866  1
  C  C342  1  0.72482074  0.05723597  0.22490933  1
  H  H343  1  0.76824277  0.20109287  0.11900614  1
  O  O344  1  0.79745320  0.46887717  0.05102813  1
  C  C345  1  0.94597748  0.04277595  0.16989983  1
  H  H346  1  0.94398296  0.34401409  0.20087012  1
  C  C347  1  0.93573224  0.26241777  0.18113804  1
  C  C348  1  0.95717366  0.14933017  0.19546427  1
  O  O349  1  0.93184088  0.36198289  0.01931587  1
  H  H350  1  0.88367799  0.35011892  0.13009751  1
  H  H351  1  0.79774556  0.14889401  0.20611709  1
  C  C352  1  0.86504187  0.16713195  0.06473670  1
  O  O353  1  0.86334117  0.08504771  0.03406487  1
  C  C354  1  0.76486548  0.43685985  0.08703861  1
  C  C355  1  0.75945318  0.12089440  0.19174891  1
  C  C356  1  0.89459891  0.16269045  0.11188384  1
  C  C357  1  0.90229512  0.26600078  0.14263930  1
  H  H358  1  0.59584637  0.05817784  0.07698679  1
  C  C359  1  0.63256776  0.03256490  0.05804888  1
  H  H360  1  0.61612901  0.05174963  0.15256509  1
  H  H361  1  0.63880306  0.00528421  0.23518822  1
  N  N362  1  0.58026438  0.24090573  0.00618552  1
  H  H363  1  0.63244109  0.13530169  0.39364088  1
  C  C364  1  0.67636946  0.07989030  0.32848888  1
  C  C365  1  0.65118499  0.06622344  0.37346359  1
  H  H366  1  0.69095207  0.24557831  0.46447248  1
  C  C367  1  0.71398059  0.43707732  0.40244708  1
  C  C368  1  0.92143039  0.15702010  0.29171823  1
  H  H369  1  0.78635075  0.07940379  0.48341449  1
  H  H370  1  0.67925698  0.16781025  0.30986003  1
  H  H371  1  0.84199451  0.27959678  0.45719137  1
  C  C372  1  0.97683124  0.13265264  0.28095868  1
  N  N373  1  0.75975152  0.40229527  0.42776276  1
  H  H374  1  0.85746745  0.18492962  0.34491682  1
  C  C375  1  0.94286642  0.06963931  0.46820719  1
  H  H376  1  0.82921219  0.08855594  0.40032579  1
  C  C377  1  0.85241431  0.34642095  0.43200914  1
  C  C378  1  0.90358313  0.36685643  0.41966798  1
  C  C379  1  0.85435718  0.08426191  0.43348676  1
  C  C380  1  0.91730697  0.45220477  0.38324731  1
  C  C381  1  0.93261284  0.12067246  0.37735551  1
  H  H382  1  0.89304381  0.18075099  0.26257531  1
  C  C383  1  0.89866140  0.15521231  0.33766669  1
  C  C384  1  0.75419729  0.37348270  0.47840207  1
  N  N385  1  0.74044177  0.00097175  0.26762214  1
  C  C386  1  0.98820675  0.11405321  0.37012431  1
  C  C387  1  0.82843964  0.06796649  0.47923742  1
  H  H388  1  0.93247465  0.32063771  0.44006183  1
  C  C389  1  0.80995082  0.41285687  0.40774106  1
  C  C390  1  0.90968048  0.09278893  0.42743389  1
  H  H391  1  0.98701396  0.08671362  0.46231096  1
  C  C392  1  0.70764461  0.44622049  0.35072071  1
  H  H393  1  0.73878739  0.40026158  0.32757312  1
  O  O394  1  0.62128433  0.03408462  0.47070637  1
  C  C395  1  0.52028168  0.03222921  0.29234334  1
  C  C396  1  0.71494051  0.28831711  0.49146122  1
  C  C397  1  0.97155160  0.48640094  0.37552203  1
  H  H398  1  0.81957683  0.48682720  0.49546801  1
  O  O399  1  0.55280841  0.07044404  0.26573889  1
  C  C400  1  0.82372759  0.49713229  0.37059221  1
  O  O401  1  0.53149893  0.00142257  0.33850467  1
  H  H402  1  0.66243448  0.49061989  0.28750509  1
  H  H403  1  0.69805064  0.10967059  0.66467006  1
  C  C404  1  0.71597148  0.06695671  0.63331138  1
  C  C405  1  0.69488313  0.35175449  0.65785225  1
  H  H406  1  0.68446368  0.19838325  0.55329195  1
  O  O407  1  0.60621169  0.06604395  0.63332347  1
  C  C408  1  0.71197369  0.26681857  0.54182965  1
  Cu  Cu409  1  0.54111542  0.07275411  0.66384864  1
  C  C410  1  0.68941505  0.32832895  0.70653553  1
  C  C411  1  0.68590597  0.01818359  0.59472968  1
  C  C412  1  0.62859061  0.01913733  0.59668278  1
  H  H413  1  0.65848441  0.37811501  0.63947116  1
  H  H414  1  0.82148617  0.28640970  0.73584151  1
  H  H415  1  0.80841635  0.46093491  0.59060568  1
  H  H416  1  0.65003500  0.33854101  0.72291045  1
  C  C417  1  0.74476583  0.32085881  0.63299698  1
  C  C418  1  0.94818778  0.33112105  0.71447791  1
  C  C419  1  0.87567931  0.08496494  0.65694026  1
  H  H420  1  0.79464274  0.12903881  0.64753086  1
  C  C421  1  0.86388406  0.06166194  0.52051709  1
  H  H422  1  0.85818266  0.00265887  0.66847423  1
  C  C423  1  0.78719635  0.43396400  0.51392588  1
  C  C424  1  0.87640273  0.12337524  0.60599625  1
  H  H425  1  0.83486211  0.32148689  0.64076155  1
  C  C426  1  0.92059877  0.05086832  0.51393549  1
  C  C427  1  0.74442897  0.32574809  0.57797672  1
  C  C428  1  0.78248477  0.41661652  0.56355841  1
  H  H429  1  0.89556032  0.12810664  0.73302023  1
  H  H430  1  0.90921696  0.24081710  0.55492426  1
  O  O431  1  0.97413719  0.42012724  0.69788515  1
  C  C432  1  0.92556080  0.25708124  0.67740651  1
  N  N433  1  0.84634246  0.07071351  0.56988226  1
  C  C434  1  0.93145654  0.29114232  0.62739552  1
  C  C435  1  0.79360306  0.31385964  0.66121725  1
  C  C436  1  0.76952848  0.07879892  0.62366825  1
  H  H437  1  0.94692469  0.04554814  0.54548110  1
  C  C438  1  0.79360478  0.03424499  0.57988773  1
  C  C439  1  0.89731303  0.15326473  0.69264115  1
  C  C440  1  0.90957073  0.21985281  0.59241947  1
  H  H441  1  0.95255560  0.37024192  0.61959938  1
  C  C442  1  0.78770380  0.29351215  0.71105748  1
  Cu  Cu443  1  0.56506813  0.06397160  0.50906698  1
  C  C444  1  0.73527903  0.27919150  0.73155087  1
  H  H445  1  0.80488923  0.09606680  0.74156131  1
  O  O446  1  0.50122060  0.09923965  0.54190010  1
  H  H447  1  0.80559073  0.48010408  0.72408287  1
  H  H448  1  0.56719518  0.49408974  0.64210114  1
  O  O449  1  0.55561167  0.48871724  0.55281060  1
  C  C450  1  0.68896774  0.29681055  0.80929835  1
  C  C451  1  0.60431027  0.09174742  0.86489316  1
  C  C452  1  0.63801059  0.13905912  0.94882641  1
  C  C453  1  0.54419423  0.18000901  0.92491912  1
  C  C454  1  0.64560495  0.09524142  0.90108489  1
  C  C455  1  0.55155157  0.13036758  0.87930468  1
  C  C456  1  0.58759979  0.18833731  0.95958698  1
  H  H457  1  0.55525654  0.28553551  0.82084443  1
  C  C458  1  0.59580262  0.31155376  0.82783927  1
  C  C459  1  0.63476313  0.25860882  0.79871802  1
  N  N460  1  0.73089216  0.24786478  0.78031427  1
  C  C461  1  0.61827860  0.02326737  0.82080973  1
  H  H462  1  0.66057481  0.32175221  0.95454725  1
  H  H463  1  0.68643901  0.05828729  0.89231087  1
  C  C464  1  0.70061539  0.38311719  0.84414825  1
  C  C465  1  0.60866645  0.38762566  0.86720091  1
  H  H466  1  0.70650507  0.04783846  0.83503257  1
  C  C467  1  0.65976064  0.43252814  0.87423839  1
  H  H468  1  0.62652919  0.20031193  0.76919154  1
  H  H469  1  0.74288094  0.40980785  0.84659832  1
  C  C470  1  0.56076058  0.41843111  0.89758065  1
  H  H471  1  0.50010155  0.08822948  0.98566264  1
  H  H472  1  0.51836050  0.12702394  0.85306935  1
  O  O473  1  0.51434193  0.39378412  0.87945497  1
  O  O474  1  0.98950414  0.00860260  0.96400326  1
  O  O475  1  0.98735743  0.46198230  0.83649364  1
  C  C476  1  0.83878056  0.05610231  0.86091254  1
  C  C477  1  0.84167302  0.04881937  0.80841158  1
  C  C478  1  0.76295891  0.18284053  0.86042874  1
  C  C479  1  0.80075688  0.12366844  0.88680651  1
  H  H480  1  0.66514478  0.13272548  0.97837525  1
  O  O481  1  0.92644980  0.31542714  0.93877234  1
  C  C482  1  0.95186126  0.33947581  0.97609320  1
  H  H483  1  0.73305885  0.23316515  0.87898631  1
  Cu  Cu484  1  0.92348610  0.42271347  0.80609844  1
  C  C485  1  0.76667018  0.17846120  0.80680581  1
  C  C486  1  0.80436058  0.10642604  0.78169329  1
  H  H487  1  0.50460213  0.22019939  0.93343114  1
  Cu  Cu488  1  0.88213882  0.40789093  0.89881954  1
  O  O489  1  0.85528804  0.41579793  0.79176561  1
  O  O490  1  0.94788952  0.30744350  0.75965724  1
  H  H491  1  0.79889211  0.12773675  0.92779115  1
  C  C492  1  0.66730051  0.33066051  0.99379269  1
  O  O493  1  0.83030917  0.47466519  0.86515759  1
  C  C494  1  0.82242507  0.47406831  0.82016907  1
  Cu  Cu495  1  0.92434638  0.04177089  0.98966913  1
  H  H496  1  0.53659886  0.00290128  0.78900864  1
  O  O497  1  0.56252584  0.47661393  0.93476446  1
  H  H498  1  0.66673150  0.49652709  0.90502110  1
  H  H499  1  0.74565709  0.40449864  0.99346301  1
  O  O500  1  0.51464229  0.81061354  0.17681560  1
  H  H501  1  0.72967580  0.77806082  0.03701610  1
  C  C502  1  0.63304085  0.96069754  0.01723741  1
  H  H503  1  0.91618342  0.90548087  0.22659521  1
  H  H504  1  0.59581213  0.92454345  0.00382513  1
  C  C505  1  0.83332119  0.95608699  0.23735972  1
  O  O506  1  0.88269257  0.56375167  0.01042376  1
  H  H507  1  0.90664255  0.97788101  0.10409320  1
  H  H508  1  0.81069643  0.67204213  0.04034125  1
  H  H509  1  0.96334470  0.95697293  0.18051863  1
  H  H510  1  0.82660932  0.98559023  0.19951503  1
  C  C511  1  0.72962087  0.99781835  0.00506613  1
  C  C512  1  0.75040029  0.75718576  0.00295115  1
  C  C513  1  0.79765671  0.70162417  0.00346232  1
  Cu  Cu514  1  0.54488248  0.85113504  0.35413915  1
  H  H515  1  0.66658976  0.77060090  0.38816134  1
  O  O516  1  0.62340927  0.84183702  0.46163195  1
  C  C517  1  0.66996260  0.85205419  0.36961182  1
  C  C518  1  0.63887613  0.56007238  0.40882753  1
  C  C519  1  0.69142812  0.86713708  0.32260266  1
  H  H520  1  0.60984712  0.60639782  0.43094301  1
  O  O521  1  0.55555552  0.69532349  0.36445614  1
  C  C522  1  0.58672445  0.63499220  0.33438328  1
  O  O523  1  0.51751963  0.88294487  0.46149175  1
  O  O524  1  0.98453347  0.85596994  0.28474524  1
  O  O525  1  0.58169928  0.64841077  0.29021869  1
  Cu  Cu526  1  0.56144017  0.77118062  0.48692174  1
  C  C527  1  0.85479875  0.90771506  0.33889763  1
  H  H528  1  0.69006052  0.51263015  0.47265319  1
  C  C529  1  0.63201185  0.94391834  0.44506855  1
  C  C530  1  0.80459226  0.94494837  0.32507066  1
  H  H531  1  0.70457899  0.78282888  0.30516355  1
  C  C532  1  0.65311620  0.95324925  0.39608047  1
  C  C533  1  0.94727336  0.85601733  0.31734289  1
  C  C534  1  0.62997753  0.56490921  0.35811397  1
  C  C535  1  0.87701908  0.51576178  0.35907879  1
  O  O536  1  0.98381950  0.57644579  0.34969126  1
  H  H537  1  0.77418478  0.96876369  0.35027614  1
  H  H538  1  0.79224339  0.55615525  0.35835553  1
  C  C539  1  0.79297154  0.96418417  0.27366462  1
  H  H540  1  0.89149601  0.58537880  0.33389803  1
  C  C541  1  0.89454855  0.89356183  0.30130527  1
  C  C542  1  0.88250745  0.91235441  0.25118195  1
  H  H543  1  0.86786378  0.88804885  0.37807049  1
  O  O544  1  0.95551032  0.83014372  0.36125804  1
  C  C545  1  0.70081559  0.98041159  0.30451739  1
  C  C546  1  0.68011994  0.50730258  0.43351879  1
  C  C547  1  0.66653118  0.50301486  0.32815696  1
  C  C548  1  0.66071117  0.76951735  0.63896275  1
  C  C549  1  0.60554398  0.62415487  0.59578224  1
  H  H550  1  0.68693486  0.84488614  0.63608007  1
  C  C551  1  0.63967047  0.72107064  0.59690988  1
  C  C552  1  0.59413100  0.56827790  0.64104808  1
  H  H553  1  0.64557617  0.75923369  0.55786774  1
  C  C554  1  0.64601650  0.71452312  0.68463845  1
  C  C555  1  0.61231439  0.61688750  0.68558923  1
  C  C556  1  0.58477273  0.57022778  0.55008818  1
  O  O557  1  0.59215314  0.62887932  0.50881093  1
  H  H558  1  0.60148414  0.58300692  0.72115866  1
  N  N559  1  0.67115104  0.75125201  0.73040966  1
  O  O560  1  0.59884553  0.97970581  0.56186010  1
  C  C561  1  0.73693394  0.60052956  0.71964117  1
  H  H562  1  0.72623078  0.59204228  0.68001169  1
  H  H563  1  0.68225836  0.92586078  0.52478981  1
  H  H564  1  0.56929372  0.83387529  0.73154634  1
  C  C565  1  0.70848505  0.97042653  0.55010548  1
  C  C566  1  0.76135102  0.97051106  0.54498059  1
  C  C567  1  0.77718791  0.53998199  0.74188704  1
  H  H568  1  0.77926313  0.93042813  0.51269540  1
  H  H569  1  0.68220086  0.65436738  0.90229199  1
  H  H570  1  0.61052828  0.59134679  0.84705247  1
  C  C571  1  0.64602647  0.70846924  0.89824623  1
  N  N572  1  0.68058622  0.84586898  0.95651287  1
  C  C573  1  0.60586189  0.67110537  0.86702702  1
  C  C574  1  0.63981520  0.81580930  0.92530780  1
  C  C575  1  0.56177867  0.74461775  0.86026563  1
  C  C576  1  0.71232897  0.68159918  0.80520292  1
  C  C577  1  0.55647141  0.85485107  0.88422182  1
  C  C578  1  0.72904868  0.78344836  0.95468187  1
  C  C579  1  0.59694920  0.89249470  0.91384766  1
  O  O580  1  0.50638546  0.60279945  0.82007628  1
  H  H581  1  0.68617545  0.73244898  0.83037588  1
  C  C582  1  0.51256400  0.71254931  0.83350700  1
  H  H583  1  0.51994874  0.90965554  0.88141215  1
  H  H584  1  0.73449732  0.88688630  0.77863492  1
  C  C585  1  0.69212343  0.90952047  0.78444802  1
  C  C586  1  0.57926400  0.97390071  0.78702533  1
  C  C587  1  0.68118955  0.93900446  0.99152741  1
  C  C588  1  0.74866230  0.60719153  0.82629853  1
  C  C589  1  0.78394270  0.54404282  0.79434141  1
  H  H590  1  0.76880170  0.98801845  0.98605412  1
  H  H591  1  0.74658803  0.81181611  0.87702407  1
  H  H592  1  0.75365855  0.59837370  0.86658942  1
  C  C593  1  0.87150145  0.59755576  0.96798368  1
  H  H594  1  0.87566132  0.99787934  0.79196310  1
  O  O595  1  0.87525592  0.99326829  0.94043250  1
  H  H596  1  0.83299249  0.70895134  0.87902656  1
  C  C597  1  0.76159801  0.77582961  0.91158561  1
  O  O598  1  0.89574858  0.55536890  0.93108428  1
  C  C599  1  0.82713631  0.67748283  0.95947666  1
  O  O600  1  0.91198238  0.94290177  0.86866078  1
  C  C601  1  0.80999028  0.72121966  0.91295695  1
  C  C602  1  0.87895867  0.99409494  0.89156874  1
  C  C603  1  0.67486248  0.99784389  0.81387901  1
  H  H604  1  0.59159290  0.98129433  0.93000965  1
  C  C605  1  0.59766410  0.88457199  0.75564271  1
  C  C606  1  0.70878301  0.67913954  0.75238858  1
  C  C607  1  0.65271888  0.84740475  0.75540481  1
