# generated using pymatgen
data_CuH13C24O5
_symmetry_space_group_name_H-M   'P 1'
_cell_length_a   12.37107694
_cell_length_b   7.80374270
_cell_length_c   38.91711874
_cell_angle_alpha   90.00000000
_cell_angle_beta   90.00000000
_cell_angle_gamma   90.00000000
_symmetry_Int_Tables_number   1
_chemical_formula_structural   CuH13C24O5
_chemical_formula_sum   'Cu8 H104 C192 O40'
_cell_volume   3757.08593939
_cell_formula_units_Z   8
loop_
 _symmetry_equiv_pos_site_id
 _symmetry_equiv_pos_as_xyz
  1  'x, y, z'
loop_
 _atom_site_type_symbol
 _atom_site_label
 _atom_site_symmetry_multiplicity
 _atom_site_fract_x
 _atom_site_fract_y
 _atom_site_fract_z
 _atom_site_occupancy
  H  H0  1  0.42990484  0.40387359  0.14309560  1
  C  C1  1  0.15482282  0.12093492  0.14263062  1
  H  H2  1  0.03793596  0.36137908  0.10163648  1
  C  C3  1  0.12294922  0.34974803  0.09620268  1
  H  H4  1  0.07344335  0.32865517  0.16163374  1
  C  C5  1  0.27041379  0.42927644  0.06133648  1
  H  H6  1  0.31603893  0.09954956  0.16588657  1
  C  C7  1  0.03756058  0.08503181  0.14540778  1
  C  C8  1  0.30552093  0.22504386  0.10669830  1
  C  C9  1  0.22955485  0.06456893  0.16697844  1
  C  C10  1  0.19335875  0.23855890  0.11435338  1
  H  H11  1  0.35761089  0.13509899  0.12069092  1
  C  C12  1  0.35712862  0.31698252  0.08072689  1
  C  C13  1  0.49686353  0.31823047  0.14232752  1
  C  C14  1  0.47467615  0.30340298  0.07934248  1
  O  O15  1  0.04808629  0.42651863  0.17530912  1
  C  C16  1  0.49545731  0.42435334  0.02100395  1
  H  H17  1  0.15860013  0.03000190  0.00796246  1
  O  O18  1  0.28807665  0.44712712  0.23621742  1
  C  C19  1  0.15975366  0.46247061  0.07047265  1
  C  C20  1  0.34705547  0.30332795  0.41082846  1
  C  C21  1  0.41589332  0.38583456  0.43697985  1
  C  C22  1  0.18241441  0.44875790  0.43375494  1
  H  H23  1  0.24595123  0.06242874  0.36533555  1
  C  C24  1  0.33357907  0.07852642  0.36236079  1
  C  C25  1  0.07592317  0.12449846  0.44636641  1
  C  C26  1  0.23387374  0.33580576  0.40951546  1
  H  H27  1  0.18265401  0.28212863  0.38902225  1
  H  H28  1  0.07627547  0.33788505  0.31654887  1
  C  C29  1  0.01204278  0.44874035  0.39963938  1
  C  C30  1  0.39642650  0.19168294  0.38360800  1
  C  C31  1  0.02848684  0.36077015  0.33954488  1
  H  H32  1  0.16147522  0.16863166  0.44898154  1
  C  C33  1  0.07024231  0.44840282  0.36758277  1
  H  H34  1  0.00809789  0.31948272  0.48021785  1
  C  C35  1  0.36370654  0.49458630  0.45950741  1
  C  C36  1  0.02294995  0.19224714  0.57992409  1
  C  C37  1  0.15220725  0.25252331  0.66741524  1
  C  C38  1  0.37806293  0.39692390  0.59867357  1
  H  H39  1  0.15184493  0.35907693  0.68857572  1
  O  O40  1  0.24527054  0.13717356  0.72744234  1
  C  C41  1  0.25524075  0.04453852  0.70313742  1
  C  C42  1  0.30412743  0.31958507  0.57514560  1
  H  H43  1  0.27926081  0.18998422  0.57730396  1
  H  H44  1  0.21714181  0.32221394  0.52655781  1
  H  H45  1  0.34354512  0.07334030  0.60927715  1
  H  H46  1  0.06878337  0.41752765  0.63272881  1
  C  C47  1  0.10278506  0.28703947  0.63583306  1
  C  C48  1  0.09152859  0.15585018  0.61019504  1
  H  H49  1  0.34141549  0.36583142  0.74784302  1
  C  C50  1  0.27117412  0.39706738  0.54516930  1
  C  C51  1  0.45751767  0.34282800  0.62683246  1
  O  O52  1  0.36652291  0.48807827  0.74288703  1
  C  C53  1  0.00699029  0.07704896  0.55154613  1
  H  H54  1  0.38931607  0.07754547  0.53202009  1
  C  C55  1  0.43398755  0.40410681  0.66089727  1
  H  H56  1  0.41671725  0.05349309  0.66723946  1
  C  C57  1  0.20093907  0.09133304  0.66962810  1
  H  H58  1  0.49663587  0.42729408  0.71316172  1
  H  H59  1  0.35938045  0.48535154  0.66562772  1
  C  C60  1  0.17407004  0.15701393  0.94971295  1
  C  C61  1  0.08779898  0.26804611  0.89427790  1
  C  C62  1  0.06358609  0.16125373  0.95801421  1
  C  C63  1  0.28430185  0.27499563  0.90031072  1
  C  C64  1  0.26929473  0.16652699  0.97313563  1
  H  H65  1  0.46854751  0.24837518  0.90388752  1
  C  C66  1  0.18180562  0.22644664  0.91435386  1
  C  C67  1  0.37201747  0.18550115  0.94968681  1
  C  C68  1  0.34651872  0.30595097  0.80462257  1
  C  C69  1  0.34594504  0.22566573  0.83569528  1
  H  H70  1  0.37854055  0.09436025  0.84096939  1
  H  H71  1  0.08523055  0.11519150  0.81360486  1
  H  H72  1  0.18286605  0.04714964  0.86885118  1
  C  C73  1  0.29236079  0.32214252  0.86259644  1
  H  H74  1  0.09147706  0.30476122  0.86609358  1
  C  C75  1  0.38747333  0.24654231  0.91706628  1
  C  C76  1  0.30497351  0.47143498  0.80085552  1
  H  H77  1  0.38857043  0.25408038  0.78380141  1
  C  C78  1  0.43031537  0.07643483  0.97562890  1
  H  H79  1  0.25784742  0.27406305  0.99178753  1
  H  H80  1  0.46282310  0.45098776  0.87936365  1
  C  C81  1  0.25507594  0.49022719  0.85835573  1
  C  C82  1  0.05885140  0.00668343  0.82985448  1
  C  C83  1  0.33507772  0.03765285  0.99571054  1
  H  H84  1  0.18818441  0.66368333  0.12592618  1
  C  C85  1  0.26475943  0.66578752  0.14022654  1
  C  C86  1  0.45472613  0.74571229  0.14452121  1
  C  C87  1  0.37211668  0.58302626  0.18836687  1
  C  C88  1  0.08702189  0.94952608  0.20216373  1
  C  C89  1  0.01211919  0.98325972  0.17640530  1
  H  H90  1  0.16562676  0.84386585  0.09325637  1
  C  C91  1  0.46320880  0.67398694  0.17620131  1
  C  C92  1  0.44061200  0.85120978  0.07308685  1
  O  O93  1  0.00161480  0.73867031  0.10417238  1
  C  C94  1  0.34206794  0.82585467  0.09047786  1
  C  C95  1  0.04573275  0.87031636  0.23354698  1
  C  C96  1  0.43753205  0.90027073  0.03811092  1
  C  C97  1  0.22095779  0.93915241  0.04569543  1
  C  C98  1  0.35790247  0.74704294  0.12486275  1
  C  C99  1  0.23510611  0.86647268  0.07688967  1
  C  C100  1  0.27325750  0.57743076  0.17041709  1
  O  O101  1  0.46032916  0.51749207  0.23941318  1
  H  H102  1  0.11436755  0.57908739  0.06108488  1
  C  C103  1  0.28785669  0.50373051  0.02972973  1
  C  C104  1  0.19689118  0.99455997  0.19781022  1
  Cu  Cu105  1  0.19974710  0.62352033  0.24852456  1
  C  C106  1  0.32690251  0.95412716  0.02728177  1
  H  H107  1  0.25294429  0.97984503  0.21912873  1
  O  O108  1  0.12772337  0.98721419  0.03090173  1
  H  H109  1  0.19747266  0.51469933  0.18180231  1
  C  C110  1  0.37336668  0.50626585  0.22275669  1
  C  C111  1  0.22533215  0.69883138  0.34611439  1
  H  H112  1  0.24191261  0.81618646  0.42858880  1
  C  C113  1  0.26665087  0.58429100  0.31995085  1
  C  C114  1  0.22239186  0.80600232  0.40210010  1
  C  C115  1  0.27496964  0.70757258  0.37832286  1
  H  H116  1  0.19215625  0.88269697  0.47387216  1
  C  C117  1  0.13175219  0.79430273  0.33682756  1
  C  C118  1  0.07332002  0.64930591  0.48931277  1
  C  C119  1  0.08338886  0.89619673  0.36066630  1
  C  C120  1  0.02024090  0.58556150  0.45967129  1
  O  O121  1  0.45722668  0.79092235  0.28518444  1
  H  H122  1  0.33269923  0.91799974  0.31676913  1
  H  H123  1  0.34369384  0.62462123  0.38523395  1
  C  C124  1  0.12387779  0.89311484  0.39532678  1
  O  O125  1  0.11135950  0.81827161  0.25567638  1
  C  C126  1  0.18850124  0.62206541  0.48576298  1
  H  H127  1  0.09962142  0.78935745  0.30902442  1
  Cu  Cu128  1  0.46131238  0.56075282  0.28811584  1
  O  O129  1  0.23975107  0.97076131  0.48502432  1
  C  C130  1  0.05649684  0.98730451  0.42200533  1
  O  O131  1  0.20106842  0.56240738  0.29475190  1
  O  O132  1  0.36060358  0.52275803  0.32250031  1
  C  C133  1  0.24640136  0.52517186  0.46203494  1
  H  H134  1  0.40765967  0.55930646  0.47982556  1
  H  H135  1  0.14909104  0.51421636  0.36661337  1
  C  C136  1  0.37933893  0.98749463  0.33568225  1
  C  C137  1  0.49109148  0.99768068  0.32707762  1
  H  H138  1  0.01415664  0.97551543  0.35215206  1
  C  C139  1  0.06703802  0.50371954  0.43192404  1
  C  C140  1  0.29722191  0.57585142  0.54138670  1
  C  C141  1  0.28114815  0.86440384  0.51112009  1
  Cu  Cu142  1  0.41136428  0.85232644  0.74089605  1
  C  C143  1  0.40082483  0.57438561  0.59606582  1
  H  H144  1  0.14504735  0.90193343  0.59163512  1
  C  C145  1  0.39581504  0.84305900  0.56137762  1
  C  C146  1  0.35664939  0.94313181  0.53486636  1
  C  C147  1  0.36575757  0.66550979  0.56584077  1
  O  O148  1  0.30707774  0.89849226  0.70682941  1
  C  C149  1  0.25516881  0.68977156  0.51535796  1
  H  H150  1  0.25720894  0.85154821  0.64818089  1
  O  O151  1  0.03137599  0.73822818  0.51681861  1
  H  H152  1  0.05796246  0.95869419  0.54905223  1
  C  C153  1  0.47444018  0.89609889  0.58894370  1
  C  C154  1  0.20961007  0.97026375  0.64223204  1
  C  C155  1  0.15214341  0.99616117  0.61232681  1
  H  H156  1  0.45158577  0.64214146  0.61457030  1
  C  C157  1  0.41584260  0.99010500  0.61398108  1
  C  C158  1  0.45907907  0.98464531  0.64703981  1
  H  H159  1  0.02225788  0.65035982  0.53414063  1
  C  C160  1  0.09787620  0.73706548  0.94187974  1
  H  H161  1  0.00836645  0.75768607  0.94253010  1
  C  C162  1  0.26169787  0.63359088  0.96845252  1
  C  C163  1  0.08620084  0.81838345  0.87959634  1
  O  O164  1  0.30178498  0.72823887  0.76726044  1
  C  C165  1  0.32513891  0.68461423  0.93872751  1
  C  C166  1  0.15791219  0.78427023  0.91087373  1
  H  H167  1  0.22102745  0.56437254  0.87991457  1
  C  C168  1  0.14525285  0.64823602  0.96853911  1
  C  C169  1  0.44255794  0.65486859  0.93755698  1
  H  H170  1  0.23399304  0.71602722  0.82390842  1
  C  C171  1  0.32148164  0.56973085  0.99851323  1
  C  C172  1  0.49026443  0.58547209  0.87530755  1
  H  H173  1  0.32028213  0.80273547  0.88765781  1
  C  C174  1  0.27254027  0.76505723  0.91080883  1
  C  C175  1  0.11414134  0.96569005  0.85928023  1
  C  C176  1  0.49132635  0.70412325  0.90347293  1
  C  C177  1  0.31379129  0.56756304  0.76904941  1
  C  C178  1  0.25836198  0.57220053  0.82733857  1
  C  C179  1  0.44421778  0.51740467  0.99429728  1
  H  H180  1  0.09577858  0.60362605  0.99012805  1
  C  C181  1  0.63773532  0.15367324  0.10870482  1
  H  H182  1  0.52130941  0.31614302  0.19594312  1
  H  H183  1  0.61547319  0.25727664  0.04442354  1
  O  O184  1  0.64069015  0.15334193  0.22973499  1
  O  O185  1  0.97155730  0.13221691  0.12465566  1
  C  C186  1  0.55242818  0.26891152  0.17242219  1
  C  C187  1  0.64510889  0.16991581  0.17002380  1
  C  C188  1  0.69366200  0.10918482  0.13864471  1
  H  H189  1  0.66773917  0.10110428  0.08402902  1
  C  C190  1  0.53690430  0.25125737  0.11080807  1
  C  C191  1  0.53829573  0.33820842  0.04763476  1
  C  C192  1  0.69567626  0.12268063  0.20319357  1
  H  H193  1  0.75705239  0.03945864  0.01976324  1
  O  O194  1  0.78890929  0.05932845  0.20445867  1
  H  H195  1  0.76279453  0.02527940  0.13986235  1
  Cu  Cu196  1  0.87056115  0.08790539  0.24163122  1
  H  H197  1  0.99979953  0.46396946  0.15887314  1
  C  C198  1  0.92901619  0.27427610  0.34021969  1
  O  O199  1  0.93501382  0.14052718  0.28491521  1
  O  O200  1  0.78301591  0.13893784  0.31453880  1
  H  H201  1  0.50279483  0.38529436  0.43790801  1
  C  C202  1  0.86572303  0.29968915  0.36981158  1
  C  C203  1  0.55976337  0.08349680  0.35042071  1
  O  O204  1  0.56996689  0.43700559  0.30902704  1
  Cu  Cu205  1  0.69207296  0.11820093  0.27558034  1
  H  H206  1  0.61591411  0.33457611  0.49416970  1
  C  C207  1  0.78632430  0.22198719  0.47194389  1
  H  H208  1  0.85402620  0.39462747  0.42196272  1
  C  C209  1  0.88186767  0.17573631  0.31154346  1
  H  H210  1  0.78244779  0.24479807  0.37108762  1
  C  C211  1  0.90443407  0.37719606  0.39963799  1
  C  C212  1  0.67438620  0.17401240  0.46431422  1
  C  C213  1  0.51105331  0.16879214  0.37729631  1
  C  C214  1  0.88407012  0.14893981  0.45825436  1
  H  H215  1  0.56322402  0.23322097  0.39569538  1
  H  H216  1  0.64677139  0.07636554  0.34617544  1
  C  C217  1  0.99375911  0.20552079  0.46381018  1
  C  C218  1  0.86658891  0.00251298  0.43465545  1
  C  C219  1  0.66730288  0.04130881  0.43932618  1
  O  O220  1  0.58340592  0.23711275  0.48044360  1
  H  H221  1  0.58416220  0.01062096  0.43113271  1
  O  O222  1  0.72297214  0.49371666  0.27837358  1
  C  C223  1  0.80909237  0.35159828  0.49922090  1
  C  C224  1  0.69102632  0.27783444  0.70631666  1
  Cu  Cu225  1  0.89625149  0.12105505  0.72392218  1
  H  H226  1  0.71356382  0.18793639  0.64038225  1
  C  C227  1  0.63215207  0.23800275  0.64544288  1
  C  C228  1  0.93867412  0.11566365  0.52489844  1
  O  O229  1  0.67578083  0.33171378  0.73706798  1
  H  H230  1  0.93521444  0.01784542  0.50323455  1
  H  H231  1  0.77454145  0.39546763  0.61045679  1
  C  C232  1  0.87750973  0.27577426  0.52413475  1
  O  O233  1  0.77084913  0.18217378  0.69841373  1
  C  C234  1  0.89143667  0.39207637  0.55359570  1
  C  C235  1  0.61596550  0.30290620  0.67821748  1
  H  H236  1  0.57087950  0.20317781  0.59343480  1
  C  C237  1  0.51362803  0.37913914  0.68645278  1
  C  C238  1  0.55758084  0.26028583  0.61847905  1
  C  C239  1  0.96561135  0.34964328  0.57914077  1
  H  H240  1  0.97514285  0.43858862  0.59957171  1
  C  C241  1  0.82217237  0.42064231  0.87360535  1
  C  C242  1  0.53332561  0.01477273  0.98741039  1
  C  C243  1  0.83845510  0.14199120  0.86038539  1
  H  H244  1  0.67500699  0.21905265  0.88609649  1
  C  C245  1  0.74375861  0.48117081  0.85376087  1
  C  C246  1  0.71387665  0.34575729  0.82831532  1
  Cu  Cu247  1  0.60149983  0.20709047  0.77028857  1
  C  C248  1  0.98216340  0.24145766  0.90618575  1
  C  C249  1  0.76088595  0.18514634  0.83602765  1
  O  O250  1  0.64290433  0.36569003  0.80531852  1
  C  C251  1  0.88184897  0.27723351  0.88108831  1
  O  O252  1  0.62207649  0.21541779  0.90476693  1
  H  H253  1  0.73352125  0.06514807  0.82403241  1
  C  C254  1  0.74757748  0.42103477  0.99681370  1
  H  H255  1  0.66436392  0.25149948  0.92462926  1
  C  C256  1  0.98353051  0.18731017  0.94049761  1
  O  O257  1  0.52333917  0.06638218  0.79971879  1
  H  H258  1  0.53404333  0.08217274  0.85531088  1
  H  H259  1  0.60401834  0.06738983  0.97577019  1
  O  O260  1  0.74276676  0.29015459  0.98950544  1
  H  H261  1  0.87770284  0.01328713  0.86051905  1
  O  O262  1  0.92555980  0.08621909  0.77249439  1
  C  C263  1  0.63537530  0.68526516  0.05420254  1
  C  C264  1  0.89235948  0.66720492  0.10454531  1
  H  H265  1  0.53758907  0.68390652  0.19296173  1
  C  C266  1  0.71468954  0.63654335  0.07654311  1
  C  C267  1  0.81202798  0.73669429  0.08029611  1
  C  C268  1  0.54029413  0.92228978  0.01908888  1
  O  O269  1  0.87335103  0.53610420  0.11955041  1
  H  H270  1  0.55450973  0.62389781  0.05587616  1
  C  C271  1  0.64388550  0.83944257  0.03394832  1
  O  O272  1  0.94516435  0.86336045  0.23711224  1
  C  C273  1  0.82635171  0.87574480  0.05745917  1
  H  H274  1  0.69825444  0.51246055  0.09156171  1
  H  H275  1  0.91276665  0.92693617  0.05822184  1
  C  C276  1  0.74665716  0.92344491  0.03503001  1
  H  H277  1  0.52278286  0.81544433  0.13295220  1
  H  H278  1  0.98116712  0.85978365  0.10342641  1
  H  H279  1  0.51847030  0.82091804  0.08639128  1
  H  H280  1  0.93005310  0.92898214  0.17899995  1
  C  C281  1  0.95468674  0.90690468  0.42111498  1
  H  H282  1  0.87855140  0.91224314  0.36485762  1
  H  H283  1  0.59379572  0.72278033  0.41587266  1
  H  H284  1  0.84504518  0.71930520  0.31714804  1
  C  C285  1  0.62434181  0.61040120  0.36543092  1
  O  O286  1  0.62011242  0.91898445  0.28643758  1
  C  C287  1  0.73533637  0.84298827  0.39352870  1
  C  C288  1  0.80948817  0.82399758  0.36574370  1
  H  H289  1  0.72026933  0.70349045  0.46900208  1
  C  C290  1  0.78710783  0.71261107  0.33838726  1
  C  C291  1  0.66355667  0.50733849  0.30687057  1
  C  C292  1  0.75976590  0.95262123  0.42550388  1
  C  C293  1  0.64270815  0.72453462  0.39277799  1
  H  H294  1  0.93406911  0.61791388  0.45729216  1
  H  H295  1  0.93611908  0.79462090  0.40514210  1
  C  C296  1  0.69492721  0.60987438  0.33620831  1
  O  O297  1  0.70859226  0.57082461  0.46763768  1
  C  C298  1  0.52673900  0.89714356  0.29692199  1
  H  H299  1  0.79000020  0.55993446  0.28473111  1
  H  H300  1  0.55419076  0.51902946  0.36687593  1
  C  C301  1  0.76203190  0.52252195  0.49693818  1
  C  C302  1  0.86486926  0.81406622  0.59179153  1
  C  C303  1  0.86680198  0.75496715  0.65130365  1
  C  C304  1  0.61507623  0.81194598  0.62943289  1
  C  C305  1  0.83576568  0.63742928  0.58830959  1
  C  C306  1  0.57822795  0.81888987  0.59544924  1
  O  O307  1  0.87004539  0.71579151  0.71016518  1
  O  O308  1  0.52696756  0.94404757  0.71361048  1
  C  C309  1  0.58258280  0.86696904  0.69161546  1
  C  C310  1  0.89030703  0.87413488  0.62437296  1
  C  C311  1  0.83330991  0.55656968  0.55361348  1
  H  H312  1  0.74980693  0.76279758  0.52652347  1
  H  H313  1  0.62081544  0.74404446  0.57599329  1
  H  H314  1  0.68924702  0.74524377  0.63819024  1
  H  H315  1  0.85883766  0.89642073  0.56822573  1
  C  C316  1  0.82920823  0.58465845  0.64851841  1
  Cu  Cu317  1  0.75777178  0.79398719  0.73914859  1
  C  C318  1  0.90292941  0.81060392  0.68529952  1
  O  O319  1  0.66047556  0.76665869  0.70013886  1
  C  C320  1  0.55031669  0.89124764  0.65576310  1
  O  O321  1  0.94744813  0.95170084  0.69187558  1
  C  C322  1  0.78269749  0.62945967  0.52539618  1
  C  C323  1  0.80842951  0.52229363  0.61610446  1
  H  H324  1  0.93395356  0.99778264  0.62999160  1
  H  H325  1  0.81384731  0.50289214  0.67145717  1
  H  H326  1  0.70818885  0.61013321  0.85630549  1
  C  C327  1  0.96812103  0.90553903  0.81993472  1
  C  C328  1  0.52129690  0.90763177  0.80311451  1
  O  O329  1  0.51488173  0.81525723  0.77638396  1
  H  H330  1  0.86875940  0.67677946  0.83069930  1
  C  C331  1  0.93820299  0.76245134  0.83974737  1
  O  O332  1  0.82765222  0.85208268  0.78179398  1
  C  C333  1  0.51311050  0.88552153  0.89827560  1
  C  C334  1  0.90270494  0.95149242  0.78923156  1
  C  C335  1  0.52381184  0.82241242  0.83724418  1
  C  C336  1  0.52697556  0.94208248  0.86462673  1
  H  H337  1  0.96649551  0.60605393  0.88560630  1
  H  H338  1  0.58974661  0.54627892  0.96162890  1
  H  H339  1  0.50759049  0.98190210  0.91877984  1
  C  C340  1  0.50024487  0.57201389  0.96419887  1
  C  C341  1  0.51917362  0.64162280  0.84195241  1
  H  H342  1  0.52121006  0.55764293  0.81930797  1
  C  C343  1  0.99503892  0.71712422  0.86957556  1
