# generated using pymatgen
data_CuH8C16O5
_symmetry_space_group_name_H-M   'P 1'
_cell_length_a   36.57891164
_cell_length_b   12.87401257
_cell_length_c   15.85674954
_cell_angle_alpha   90.00000000
_cell_angle_beta   90.00000000
_cell_angle_gamma   90.00000000
_symmetry_Int_Tables_number   1
_chemical_formula_structural   CuH8C16O5
_chemical_formula_sum   'Cu8 H64 C128 O40'
_cell_volume   7467.21876330
_cell_formula_units_Z   8
loop_
 _symmetry_equiv_pos_site_id
 _symmetry_equiv_pos_as_xyz
  1  'x, y, z'
loop_
 _atom_site_type_symbol
 _atom_site_label
 _atom_site_symmetry_multiplicity
 _atom_site_fract_x
 _atom_site_fract_y
 _atom_site_fract_z
 _atom_site_occupancy
  O  O0  1  0.34761756  0.28124680  0.24915467  1
  H  H1  1  0.20582763  0.02347525  0.32070082  1
  O  O2  1  0.15968593  0.06882706  0.41944271  1
  H  H3  1  0.11595907  0.02425772  0.49848462  1
  C  C4  1  0.33275406  0.02728461  0.47563816  1
  C  C5  1  0.37979668  0.16016223  0.49782166  1
  H  H6  1  0.32606225  0.09998455  0.26606824  1
  C  C7  1  0.36307876  0.34774133  0.46716826  1
  C  C8  1  0.30460523  0.15374816  0.28498171  1
  O  O9  1  0.33184096  0.38432859  0.47676159  1
  C  C10  1  0.34374279  0.13293362  0.46922574  1
  H  H11  1  0.32674532  0.19863879  0.44707012  1
  C  C12  1  0.39215442  0.32816755  0.41171047  1
  O  O13  1  0.40450388  0.34152104  0.33999343  1
  Cu  Cu14  1  0.31296015  0.43754491  0.37214040  1
  H  H15  1  0.25306280  0.17155694  0.34145912  1
  C  C16  1  0.27301453  0.11716223  0.31423928  1
  O  O17  1  0.29690914  0.33515163  0.30789002  1
  C  C18  1  0.39154537  0.27429833  0.49633098  1
  C  C19  1  0.31561089  0.25908573  0.27976426  1
  C  C20  1  0.26501451  0.00499574  0.31748206  1
  Cu  Cu21  1  0.37602860  0.40249077  0.25733371  1
  O  O22  1  0.04653403  0.38158088  0.66267189  1
  C  C23  1  0.10073462  0.46181821  0.62461584  1
  C  C24  1  0.08072869  0.40071855  0.68247324  1
  H  H25  1  0.08479170  0.47817315  0.56592026  1
  H  H26  1  0.14828772  0.47278752  0.69980268  1
  C  C27  1  0.13450880  0.49280563  0.64044545  1
  Cu  Cu28  1  0.00259615  0.37706582  0.72639910  1
  O  O29  1  0.44447716  0.30824600  0.63494195  1
  H  H30  1  0.41013052  0.30194639  0.54864902  1
  C  C31  1  0.45240755  0.39622178  0.63669561  1
  C  C32  1  0.40667332  0.08906677  0.52282362  1
  H  H33  1  0.43564561  0.11496632  0.54072102  1
  Cu  Cu34  1  0.05504724  0.33403185  0.83472957  1
  O  O35  1  0.04152160  0.19629472  0.82347083  1
  C  C36  1  0.01159887  0.17335201  0.78244868  1
  O  O37  1  0.04316048  0.44321399  0.91792573  1
  O  O38  1  0.09174326  0.37394844  0.75590205  1
  H  H39  1  0.00810636  0.02179923  0.84249126  1
  Cu  Cu40  1  0.18615362  0.64437018  0.09376568  1
  O  O41  1  0.07299755  0.63074279  0.11276233  1
  O  O42  1  0.12615399  0.59257642  0.17641928  1
  C  C43  1  0.09288349  0.62560245  0.18041449  1
  O  O44  1  0.19902268  0.69078295  0.19688960  1
  Cu  Cu45  1  0.08485137  0.63035940  0.00170995  1
  C  C46  1  0.26753178  0.64696231  0.01444001  1
  H  H47  1  0.28928993  0.65822402  0.22412581  1
  O  O48  1  0.25737754  0.57315697  0.03253931  1
  C  C49  1  0.20459583  0.64813845  0.34496478  1
  C  C50  1  0.09330501  0.65086558  0.33536512  1
  C  C51  1  0.21942711  0.86595590  0.32113324  1
  C  C52  1  0.18998471  0.61373198  0.42208493  1
  C  C53  1  0.12930421  0.61995839  0.34096844  1
  C  C54  1  0.14997171  0.60047600  0.41908020  1
  H  H55  1  0.07885856  0.66792487  0.39436487  1
  H  H56  1  0.19073970  0.83728987  0.32386759  1
  C  C57  1  0.22756087  0.96672579  0.31642650  1
  C  C58  1  0.16476170  0.99936542  0.46750099  1
  H  H59  1  0.22492212  0.97320165  0.46794524  1
  C  C60  1  0.18605253  0.65491615  0.26402552  1
  C  C61  1  0.15062289  0.59489649  0.26215408  1
  C  C62  1  0.07688079  0.65526036  0.25742257  1
  H  H63  1  0.04763283  0.67145763  0.26188203  1
  C  C64  1  0.19862946  0.94738468  0.49037148  1
  C  C65  1  0.24312619  0.68705490  0.33811392  1
  H  H66  1  0.15950731  0.51265925  0.26115129  1
  C  C67  1  0.24983062  0.79244412  0.32495552  1
  C  C68  1  0.13300831  0.56977987  0.49454019  1
  H  H69  1  0.10447043  0.55253098  0.48459145  1
  H  H70  1  0.30599431  0.99843382  0.45471367  1
  O  O71  1  0.33595491  0.56047739  0.27023367  1
  C  C72  1  0.27347670  0.61493352  0.34956794  1
  H  H73  1  0.36640268  0.85352681  0.33534933  1
  C  C74  1  0.37941329  0.69428398  0.30420394  1
  O  O75  1  0.27564584  0.53265000  0.38911394  1
  H  H76  1  0.40882763  0.70923883  0.30562468  1
  C  C77  1  0.30339562  0.64634272  0.28701882  1
  O  O78  1  0.39574359  0.53038479  0.26739730  1
  H  H79  1  0.26595522  0.86236808  0.47900397  1
  C  C80  1  0.29519667  0.93392139  0.30841465  1
  C  C81  1  0.28848484  0.82718079  0.32122141  1
  H  H82  1  0.32257864  0.96493563  0.29780590  1
  C  C83  1  0.36872207  0.59351203  0.27979143  1
  C  C84  1  0.35606426  0.77433279  0.32007036  1
  C  C85  1  0.31844708  0.74950747  0.31200524  1
  C  C86  1  0.23543171  0.74020988  0.64850760  1
  C  C87  1  0.22686753  0.81506311  0.57851623  1
  H  H88  1  0.16713221  0.85645298  0.57321458  1
  C  C89  1  0.19038386  0.57555714  0.57057027  1
  C  C90  1  0.21228638  0.71019936  0.71369940  1
  H  H91  1  0.18640934  0.75040780  0.72493937  1
  C  C92  1  0.15232474  0.54517888  0.57121743  1
  C  C93  1  0.19440559  0.86785937  0.54814541  1
  H  H94  1  0.20454394  0.56432158  0.63084410  1
  O  O95  1  0.12976701  0.96202368  0.51384416  1
  H  H96  1  0.23653255  0.62756294  0.50781365  1
  C  C97  1  0.20851941  0.61449479  0.50208814  1
  C  C98  1  0.34913633  0.85116776  0.53018397  1
  C  C99  1  0.28876158  0.62643288  0.70414881  1
  C  C100  1  0.48056744  0.81795827  0.57489063  1
  C  C101  1  0.45882805  0.50816650  0.63333986  1
  C  C102  1  0.26129193  0.81649437  0.53834531  1
  C  C103  1  0.45969168  0.89827180  0.55375182  1
  H  H104  1  0.46964179  0.74034101  0.58527335  1
  C  C105  1  0.36730899  0.76354093  0.56659476  1
  O  O106  1  0.46369598  0.59444134  0.62747498  1
  H  H107  1  0.42244045  0.73109728  0.60223947  1
  C  C108  1  0.32775948  0.76662105  0.55309994  1
  C  C109  1  0.27147667  0.69405930  0.64057350  1
  O  O110  1  0.32318500  0.58830591  0.69369171  1
  C  C111  1  0.41964856  0.88842600  0.55187044  1
  H  H112  1  0.32934763  0.62030282  0.63566264  1
  H  H113  1  0.47559251  0.96936035  0.53876972  1
  C  C114  1  0.28912614  0.75238828  0.57323844  1
  C  C115  1  0.40446439  0.79340578  0.57521437  1
  C  C116  1  0.36028502  0.95407229  0.50810516  1
  C  C117  1  0.39739272  0.98066991  0.52888039  1
  C  C118  1  0.17566445  0.64858575  0.86220005  1
  C  C119  1  0.20718442  0.60417617  0.84952503  1
  H  H120  1  0.16502957  0.70784057  0.81523821  1
  O  O121  1  0.05546728  0.61062056  0.90690139  1
  C  C122  1  0.15490088  0.63657653  0.93815799  1
  H  H123  1  0.21726643  0.54614407  0.89945040  1
  C  C124  1  0.03229347  0.53692518  0.90582667  1
  O  O125  1  0.12367293  0.68454964  0.94578674  1
  C  C126  1  0.22629221  0.63710465  0.77170904  1
  O  O127  1  0.16826838  0.58505910  0.99784812  1
  H  H128  1  0.00460168  0.71085223  0.87544320  1
  H  H129  1  0.27435237  0.57343739  0.82997301  1
  C  C130  1  0.26389966  0.60485507  0.77201228  1
  H  H131  1  0.89993460  0.06503779  0.06797190  1
  O  O132  1  0.95661716  0.11902395  0.06660794  1
  O  O133  1  0.90811967  0.40773116  0.04167105  1
  C  C134  1  0.93619734  0.14123350  0.01352733  1
  H  H135  1  0.90814784  0.33535915  0.04868759  1
  O  O136  1  0.89639728  0.11803153  0.02385093  1
  H  H137  1  0.88400406  0.41674184  0.02410691  1
  C  C138  1  0.69614929  0.49964163  0.68620525  1
  H  H139  1  0.75861642  0.00909331  0.69006859  1
  C  C140  1  0.92712519  0.49156839  0.69083092  1
  C  C141  1  0.76008539  0.49165661  0.64172029  1
  C  C142  1  0.76606938  0.41834156  0.71575985  1
  C  C143  1  0.86634283  0.36459241  0.70763826  1
  H  H144  1  0.84171629  0.47530344  0.61705699  1
  C  C145  1  0.83002238  0.30856992  0.72619898  1
  C  C146  1  0.79805777  0.36303760  0.72042321  1
  C  C147  1  0.78106863  0.06597704  0.71241785  1
  C  C148  1  0.86550866  0.45282208  0.65124929  1
  C  C149  1  0.80458896  0.12354158  0.73816270  1
  H  H150  1  0.89954988  0.02829358  0.70931776  1
  H  H151  1  0.95398593  0.09412921  0.70092844  1
  C  C152  1  0.92988456  0.39642000  0.74256342  1
  O  O153  1  0.99923720  0.23126373  0.72550967  1
  H  H154  1  0.73463954  0.01089391  0.86697044  1
  H  H155  1  0.74740991  0.15990796  0.96373671  1
  C  C156  1  0.70120389  0.43563698  0.75993852  1
  C  C157  1  0.73503737  0.38908448  0.77038675  1
  H  H158  1  0.67852832  0.41369845  0.80486643  1
  H  H159  1  0.74042029  0.33021751  0.81745147  1
  H  H160  1  0.63781859  0.48546652  0.77693690  1
  O  O161  1  0.75674848  0.35120503  0.98708439  1
  H  H162  1  0.82816335  0.21267964  0.92773440  1
  C  C163  1  0.96499509  0.04086356  0.75097597  1
  C  C164  1  0.83375705  0.19883335  0.76236510  1
  H  H165  1  0.84660121  0.06431445  0.97947565  1
  O  O166  1  0.81233300  0.39846649  0.95479391  1
  C  C167  1  0.89735759  0.33567737  0.75265110  1
  C  C168  1  0.77588955  0.14243025  0.94928020  1
  H  H169  1  0.87055276  0.09150713  0.82123371  1
  C  C170  1  0.78723940  0.32589751  0.96574763  1
  C  C171  1  0.92343072  0.22106676  0.87406823  1
  O  O172  1  0.95862651  0.37754729  0.78342035  1
  C  C173  1  0.82760564  0.01293446  0.94340608  1
  H  H174  1  0.97451433  0.22994892  0.92485499  1
  C  C175  1  0.79963910  0.22015783  0.94771247  1
  C  C176  1  0.94714594  0.19530670  0.93113149  1
  C  C177  1  0.86506002  0.17416575  0.80382519  1
  C  C178  1  0.78898930  0.03654889  0.92601741  1
  C  C179  1  0.89639744  0.24704917  0.81423415  1
  H  H180  1  0.97719594  0.48822607  0.88482372  1
  Cu  Cu181  1  0.81607625  0.49109600  0.85993240  1
  C  C182  1  0.99468333  0.07481948  0.79487649  1
  H  H183  1  0.85041561  0.61493979  0.43318833  1
  C  C184  1  0.72490402  0.52319127  0.62630390  1
  H  H185  1  0.72038612  0.57890801  0.57512795  1
  C  C186  1  0.66109543  0.53779518  0.66254960  1
  O  O187  1  0.53244530  0.92021128  0.56437402  1
  C  C188  1  0.51944003  0.83819856  0.58695530  1
  O  O189  1  0.63979930  0.78341466  0.63436862  1
  Cu  Cu190  1  0.58826737  0.76154430  0.62687750  1
  O  O191  1  0.54194022  0.76215345  0.62020987  1
  C  C192  1  0.65816901  0.83041942  0.69386728  1
  C  C193  1  0.69522514  0.79034436  0.71641313  1
  O  O194  1  0.64270046  0.89947704  0.73093037  1
  H  H195  1  0.70579269  0.72282099  0.68224435  1
  H  H196  1  0.65881355  0.58781962  0.60439405  1
  C  C197  1  0.59967992  0.56833129  0.69783815  1
  O  O198  1  0.59286463  0.61689272  0.62660564  1
  H  H199  1  0.54991470  0.57849627  0.72226227  1
  C  C200  1  0.63366099  0.52920973  0.71842495  1
  C  C201  1  0.90892965  0.95794511  0.74620192  1
  O  O202  1  0.86284066  0.70542950  0.51251367  1
  C  C203  1  0.84382544  0.63114581  0.50316088  1
  O  O204  1  0.98008280  0.62469166  0.68214441  1
  C  C205  1  0.95753303  0.56172375  0.69093415  1
  H  H206  1  0.89603433  0.58609196  0.59801823  1
  C  C207  1  0.81393734  0.57259194  0.54547891  1
  C  C208  1  0.89592421  0.51348193  0.63937412  1
  C  C209  1  0.78998884  0.53123646  0.58709340  1
  H  H210  1  0.83892446  0.60044111  0.73736043  1
  H  H211  1  0.70331911  0.91974696  0.79763701  1
  C  C212  1  0.71524764  0.84675941  0.77399515  1
  H  H213  1  0.74855483  0.65353744  0.75011451  1
  O  O214  1  0.57204671  0.55428471  0.75540657  1
  C  C215  1  0.75083074  0.81435763  0.80218561  1
  C  C216  1  0.76674369  0.71190791  0.78022194  1
  C  C217  1  0.77533749  0.88333204  0.85035353  1
  C  C218  1  0.98166970  0.65519138  0.87813377  1
  O  O219  1  0.81791814  0.56946629  0.76720106  1
  O  O220  1  0.85655098  0.55928227  0.90901544  1
  C  C221  1  0.94431425  0.68281776  0.86634615  1
  C  C222  1  0.93340886  0.78181726  0.83392599  1
  C  C223  1  0.81403638  0.85105880  0.86872820  1
  C  C224  1  0.86759701  0.72786537  0.84748309  1
  C  C225  1  0.91682016  0.61138712  0.88910824  1
  H  H226  1  0.92422760  0.53814853  0.91580235  1
  C  C227  1  0.94684285  0.94374114  0.76855713  1
  C  C228  1  0.83761791  0.91376454  0.92093113  1
  H  H229  1  0.86498113  0.88288006  0.93305028  1
  C  C230  1  0.99448439  0.55841545  0.88954336  1
  C  C231  1  0.80257749  0.68516709  0.79533406  1
  C  C232  1  0.87886493  0.62854155  0.88192494  1
  C  C233  1  0.89362445  0.80034397  0.81840440  1
  H  H234  1  0.99008511  0.85473026  0.83065918  1
  C  C235  1  0.82760774  0.75423620  0.83732575  1
  C  C236  1  0.96087645  0.85412127  0.81108759  1
  C  C237  1  0.88151895  0.88990135  0.77264668  1
  C  C238  1  0.76110865  0.97693373  0.88321533  1
  H  H239  1  0.85169858  0.89900123  0.75509182  1
