# generated using pymatgen
data_CuH16C28O5
_symmetry_space_group_name_H-M   'P 1'
_cell_length_a   15.34038415
_cell_length_b   7.27677090
_cell_length_c   47.05371126
_cell_angle_alpha   90.00000000
_cell_angle_beta   90.00000000
_cell_angle_gamma   90.00000000
_symmetry_Int_Tables_number   1
_chemical_formula_structural   CuH16C28O5
_chemical_formula_sum   'Cu8 H128 C224 O40'
_cell_volume   5252.53336759
_cell_formula_units_Z   8
loop_
 _symmetry_equiv_pos_site_id
 _symmetry_equiv_pos_as_xyz
  1  'x, y, z'
loop_
 _atom_site_type_symbol
 _atom_site_label
 _atom_site_symmetry_multiplicity
 _atom_site_fract_x
 _atom_site_fract_y
 _atom_site_fract_z
 _atom_site_occupancy
  C  C0  1  0.35595863  0.36174529  0.05814473  1
  C  C1  1  0.27062001  0.36549388  0.07161311  1
  H  H2  1  0.40840838  0.27643805  0.06761580  1
  C  C3  1  0.47130177  0.24443925  0.13816581  1
  C  C4  1  0.19309716  0.45206102  0.06029368  1
  H  H5  1  0.29128204  0.25646762  0.14217122  1
  H  H6  1  0.19296987  0.23887706  0.10697369  1
  C  C7  1  0.46067720  0.33503878  0.22828804  1
  C  C8  1  0.41290773  0.32861343  0.11856360  1
  C  C9  1  0.31777863  0.29026297  0.12174224  1
  H  H10  1  0.44386040  0.14137661  0.15417689  1
  C  C11  1  0.25657945  0.29286142  0.10032750  1
  H  H12  1  0.40847692  0.30394947  0.24285259  1
  C  C13  1  0.36812549  0.48002571  0.03518283  1
  C  C14  1  0.46382997  0.48864342  0.21095990  1
  C  C15  1  0.44911074  0.46592234  0.09994175  1
  H  H16  1  0.12871098  0.42887623  0.07068744  1
  O  O17  1  0.40785124  0.40236200  0.47347163  1
  C  C18  1  0.42615401  0.12528661  0.39162088  1
  O  O19  1  0.44654591  0.02299888  0.26208702  1
  C  C20  1  0.40181939  0.10911328  0.36316568  1
  H  H21  1  0.02592716  0.47774645  0.43847677  1
  C  C22  1  0.32930547  0.41196003  0.36603010  1
  C  C23  1  0.30242579  0.08075822  0.46699962  1
  C  C24  1  0.08642165  0.27619920  0.39469048  1
  C  C25  1  0.36116223  0.46033566  0.49278469  1
  C  C26  1  0.12159306  0.28390566  0.42273770  1
  C  C27  1  0.26574234  0.44137771  0.49708268  1
  H  H28  1  0.11448753  0.19276288  0.37781233  1
  C  C29  1  0.23653131  0.21141624  0.45838199  1
  C  C30  1  0.19732027  0.16853104  0.43024156  1
  C  C31  1  0.11695446  0.43289598  0.47105584  1
  H  H32  1  0.34438548  0.24307827  0.32855293  1
  C  C33  1  0.40029881  0.27399325  0.40815126  1
  C  C34  1  0.20699768  0.36467101  0.47593845  1
  C  C35  1  0.08624556  0.40065018  0.44390620  1
  H  H36  1  0.41839082  0.27551190  0.42939737  1
  H  H37  1  0.04904499  0.16374604  0.33399975  1
  C  C38  1  0.35462255  0.25867009  0.35128735  1
  C  C39  1  0.35254300  0.42883087  0.39609461  1
  C  C40  1  0.21973335  0.00943630  0.41378477  1
  H  H41  1  0.34147505  0.11268267  0.48612805  1
  C  C42  1  0.01199436  0.36995805  0.38682504  1
  H  H43  1  0.46480819  0.00833857  0.40062936  1
  H  H44  1  0.32416769  0.33761594  0.55304785  1
  C  C45  1  0.09239586  0.13226399  0.59783260  1
  C  C46  1  0.05764217  0.21401490  0.62294817  1
  H  H47  1  0.14947875  0.04308690  0.60194282  1
  C  C48  1  0.06184281  0.09312295  0.71192518  1
  H  H49  1  0.02290895  0.24557898  0.66782202  1
  C  C50  1  0.43870371  0.11568087  0.72100955  1
  H  H51  1  0.13575618  0.41164798  0.71419542  1
  C  C52  1  0.41760110  0.13100643  0.57242720  1
  C  C53  1  0.05818740  0.07974055  0.51800258  1
  C  C54  1  0.44748257  0.23041987  0.69466587  1
  H  H55  1  0.29399508  0.08823207  0.71949350  1
  C  C56  1  0.05335569  0.03792961  0.74011121  1
  H  H57  1  0.01632858  0.20383001  0.70493382  1
  C  C58  1  0.06503775  0.17002599  0.65333426  1
  C  C59  1  0.37440572  0.30775360  0.56987470  1
  C  C60  1  0.11977144  0.03447281  0.66276040  1
  H  H61  1  0.09847121  0.37030367  0.52150634  1
  C  C62  1  0.06270881  0.13950049  0.56988447  1
  C  C63  1  0.35437250  0.05135674  0.73077495  1
  O  O64  1  0.09825506  0.06383551  0.54699682  1
  C  C65  1  0.40153756  0.44236614  0.58868643  1
  O  O66  1  0.38675997  0.27548657  0.68022241  1
  C  C67  1  0.47010953  0.41280425  0.60835059  1
  C  C68  1  0.09821909  0.49201364  0.69770672  1
  H  H69  1  0.18564414  0.43027820  0.66393410  1
  C  C70  1  0.48800598  0.11242410  0.59283858  1
  C  C71  1  0.12381594  0.49468538  0.67025228  1
  C  C72  1  0.47844540  0.13439002  0.98280167  1
  C  C73  1  0.17339626  0.43726683  0.88212471  1
  C  C74  1  0.39889866  0.17772178  0.93792820  1
  O  O75  1  0.08503882  0.43710357  0.82880010  1
  O  O76  1  0.14160982  0.17351741  0.81761617  1
  C  C77  1  0.31260476  0.19476689  0.88512980  1
  Cu  Cu78  1  0.05429253  0.46360144  0.78950042  1
  H  H79  1  0.41390738  0.09716858  0.99143614  1
  C  C80  1  0.13840680  0.31103816  0.83312021  1
  C  C81  1  0.48089666  0.20632502  0.95420084  1
  C  C82  1  0.19218204  0.31385794  0.85962361  1
  C  C83  1  0.26019846  0.18260436  0.86185895  1
  C  C84  1  0.29783722  0.33449590  0.90569004  1
  H  H85  1  0.37231235  0.04147935  0.93110233  1
  C  C86  1  0.36779996  0.33982110  0.92753310  1
  C  C87  1  0.22476259  0.45661527  0.90536304  1
  H  H88  1  0.37228879  0.10274567  0.88830452  1
  H  H89  1  0.46772506  0.38645534  0.81401013  1
  H  H90  1  0.26921640  0.09367542  0.84347695  1
  H  H91  1  0.00674339  0.10179995  0.75532420  1
  H  H92  1  0.39621178  0.47151947  0.93197890  1
  H  H93  1  0.48190353  0.47319384  0.76327051  1
  O  O94  1  0.02695126  0.43619254  0.75034891  1
  C  C95  1  0.46439526  0.92003559  0.07077400  1
  H  H96  1  0.12370118  0.51349829  0.14599160  1
  C  C97  1  0.09878958  0.81602519  0.09025322  1
  C  C98  1  0.14102997  0.62035797  0.13145461  1
  H  H99  1  0.47645747  0.70068558  0.16353218  1
  H  H100  1  0.04896328  0.86163989  0.07513364  1
  H  H101  1  0.47551356  0.77441714  0.12150202  1
  H  H102  1  0.19687315  0.97676149  0.07261618  1
  H  H103  1  0.27454623  0.62977972  0.14521843  1
  O  O104  1  0.35007774  0.92977672  0.17687460  1
  C  C105  1  0.37580760  0.86956206  0.07885285  1
  H  H106  1  0.33100611  0.83319017  0.06174382  1
  C  C107  1  0.34164774  0.87386504  0.10581443  1
  C  C108  1  0.18441560  0.88014261  0.09007554  1
  C  C109  1  0.22561218  0.68110867  0.13146997  1
  C  C110  1  0.24865962  0.81194789  0.10927076  1
  H  H111  1  0.41968072  0.93517827  0.02982228  1
  H  H112  1  0.37635428  0.93709326  0.12363958  1
  C  C113  1  0.47653402  0.96634818  0.04193859  1
  C  C114  1  0.07885777  0.68219861  0.11105991  1
  C  C115  1  0.35587248  0.83778566  0.19426236  1
  O  O116  1  0.01826965  0.58418068  0.02187275  1
  C  C117  1  0.20047702  0.54640808  0.03510197  1
  H  H118  1  0.14258464  0.60737187  0.02442160  1
  H  H119  1  0.40016800  0.55286547  0.09034284  1
  C  C120  1  0.28797656  0.58038770  0.02453942  1
  H  H121  1  0.40635006  0.57897251  0.20882664  1
  C  C122  1  0.45654036  0.52053243  0.02311467  1
  H  H123  1  0.34026045  0.53659815  0.44112540  1
  C  C124  1  0.04310318  0.98688957  0.46693290  1
  O  O125  1  0.06873381  0.51427680  0.49099043  1
  C  C126  1  0.28589400  0.88914899  0.42498601  1
  H  H127  1  0.38085499  0.84645806  0.45927157  1
  H  H128  1  0.15151508  0.83100164  0.45262893  1
  C  C129  1  0.42951481  0.94740277  0.34645737  1
  H  H130  1  0.29642994  0.53628701  0.35665497  1
  C  C131  1  0.05802950  0.79896514  0.42158802  1
  C  C132  1  0.32623084  0.92605347  0.45247421  1
  H  H133  1  0.28883556  0.73656500  0.38416023  1
  Cu  Cu134  1  0.44485462  0.81505931  0.28698137  1
  C  C135  1  0.30512731  0.72717653  0.40681076  1
  C  C136  1  0.08516974  0.86330260  0.44774149  1
  H  H137  1  0.11220080  0.75160539  0.40728462  1
  C  C138  1  0.08593811  0.98659357  0.49435053  1
  H  H139  1  0.47660911  0.53217585  0.35720029  1
  C  C140  1  0.33371302  0.56717558  0.41800127  1
  O  O141  1  0.47312087  0.82895873  0.35684191  1
  H  H142  1  0.13840792  0.88966801  0.49809985  1
  O  O143  1  0.41281938  0.95789264  0.31845739  1
  O  O144  1  0.46257152  0.59501938  0.30641211  1
  H  H145  1  0.18453680  0.96860595  0.39531473  1
  H  H146  1  0.01320713  0.60715058  0.55052406  1
  C  C147  1  0.27291932  0.62734741  0.54111526  1
  C  C148  1  0.36818191  0.66772442  0.53484862  1
  C  C149  1  0.41561779  0.80760549  0.55212470  1
  C  C150  1  0.08414479  0.60489879  0.54800303  1
  C  C151  1  0.08343551  0.60532257  0.64934528  1
  C  C152  1  0.16095401  0.77552539  0.72948153  1
  H  H153  1  0.15767455  0.95365396  0.64754391  1
  O  O154  1  0.47672218  0.72050123  0.62258158  1
  H  H155  1  0.17555348  0.52212799  0.61739563  1
  C  C156  1  0.01752273  0.57537871  0.70559284  1
  H  H157  1  0.47519156  0.59922248  0.50938128  1
  C  C158  1  0.08625584  0.70404618  0.59779641  1
  C  C159  1  0.17273831  0.84557776  0.70355107  1
  C  C160  1  0.37656421  0.97035372  0.55863792  1
  C  C161  1  0.12187276  0.61307140  0.62083787  1
  H  H162  1  0.20225301  0.66361723  0.73758393  1
  H  H163  1  0.27503732  0.75779738  0.58211851  1
  C  C164  1  0.00986158  0.70884561  0.65933659  1
  H  H165  1  0.21392543  0.77804476  0.68759295  1
  C  C166  1  0.13955191  0.66424806  0.57087597  1
  C  C167  1  0.23224024  0.69229556  0.56628291  1
  H  H168  1  0.03167974  0.79114847  0.59918867  1
  H  H169  1  0.37455889  0.57672192  0.58752590  1
  C  C170  1  0.40623031  0.57201253  0.51305936  1
  C  C171  1  0.12466259  0.51701593  0.52352090  1
  C  C172  1  0.22373039  0.53255860  0.51983668  1
  H  H173  1  0.31048840  0.98297122  0.54956371  1
  H  H174  1  0.48344773  0.77748295  0.55989964  1
  C  C175  1  0.11903076  0.99482722  0.69336646  1
  C  C176  1  0.10187952  0.87483785  0.74684033  1
  H  H177  1  0.18465718  0.77489269  0.89055889  1
  H  H178  1  0.49816218  0.85679868  0.81296760  1
  H  H179  1  0.30085463  0.78597079  0.79774916  1
  C  C180  1  0.35186634  0.78394832  0.84236848  1
  C  C181  1  0.40065452  0.67318224  0.98136153  1
  C  C182  1  0.32646420  0.78943884  0.89936986  1
  C  C183  1  0.24965120  0.78730904  0.88127153  1
  C  C184  1  0.48069652  0.79294910  0.93810240  1
  C  C185  1  0.33781232  0.75013231  0.92793853  1
  C  C186  1  0.39669818  0.74842833  0.94979945  1
  C  C187  1  0.35952135  0.80697934  0.81180491  1
  H  H188  1  0.11087954  0.51433696  0.87817011  1
  C  C189  1  0.26084230  0.76972364  0.85193565  1
  C  C190  1  0.08838602  0.82104411  0.77658433  1
  H  H191  1  0.49482704  0.78936453  0.85057646  1
  O  O192  1  0.12005254  0.67124062  0.78464207  1
  H  H193  1  0.20907405  0.73711567  0.83660562  1
  C  C194  1  0.43118060  0.79651345  0.85953526  1
  C  C195  1  0.41899821  0.80474421  0.88768487  1
  C  C196  1  0.47324538  0.61181112  0.99735581  1
  C  C197  1  0.49055883  0.81222918  0.90882116  1
  O  O198  1  0.05681541  0.80912663  0.89145293  1
  C  C199  1  0.44094799  0.84465714  0.80034177  1
  O  O200  1  0.04521365  0.92194270  0.79324374  1
  H  H201  1  0.21083025  0.55805773  0.92205184  1
  C  C202  1  0.44186857  0.91171757  0.77025050  1
  O  O203  1  0.01047613  0.81024314  0.84709774  1
  Cu  Cu204  1  0.07906920  0.97877801  0.82955216  1
  C  C205  1  0.31826779  0.65308898  0.99670173  1
  C  C206  1  0.36111726  0.94668028  0.75544493  1
  H  H207  1  0.30275283  0.88259756  0.76563724  1
  C  C208  1  0.69025356  0.42851596  0.11651071  1
  C  C209  1  0.54484394  0.46872787  0.03311888  1
  C  C210  1  0.80942568  0.34905139  0.02473971  1
  H  H211  1  0.82544433  0.20530531  0.01892364  1
  H  H212  1  0.67475715  0.27711902  0.02341690  1
  O  O213  1  0.98503851  0.28672335  0.02180152  1
  C  C214  1  0.52778479  0.20393038  0.22890452  1
  C  C215  1  0.96656273  0.45298294  0.02431306  1
  C  C216  1  0.55942592  0.28002157  0.13557310  1
  C  C217  1  0.72311321  0.38848458  0.02663719  1
  C  C218  1  0.62628206  0.05747037  0.05242399  1
  C  C219  1  0.61283325  0.38193439  0.19446603  1
  C  C220  1  0.60101613  0.22224383  0.21131649  1
  H  H221  1  0.60748367  0.19536708  0.14605667  1
  C  C222  1  0.59578985  0.40377135  0.11635521  1
  H  H223  1  0.65053718  0.11854701  0.21350297  1
  O  O224  1  0.74217749  0.36332244  0.13416594  1
  C  C225  1  0.55350994  0.05557035  0.03110797  1
  Cu  Cu226  1  0.85730553  0.40937740  0.13580808  1
  H  H227  1  0.56732163  0.32945275  0.03770983  1
  H  H228  1  0.67420786  0.39499845  0.18302400  1
  C  C229  1  0.53695230  0.49689589  0.09849862  1
  C  C230  1  0.70427762  0.02139490  0.10115964  1
  O  O231  1  0.97105205  0.47182374  0.12898169  1
  H  H232  1  0.76239016  0.08798298  0.09547490  1
  C  C233  1  0.62683011  0.01437563  0.08241908  1
  C  C234  1  0.87152787  0.49444256  0.02863336  1
  C  C235  1  0.51618789  0.04826438  0.24885991  1
  H  H236  1  0.82217470  0.13106686  0.39041070  1
  C  C237  1  0.87099455  0.34234133  0.48392925  1
  C  C238  1  0.65269653  0.33159244  0.32526333  1
  H  H239  1  0.74129900  0.34820763  0.46340719  1
  H  H240  1  0.55383020  0.43362502  0.40113701  1
  C  C241  1  0.57543745  0.43313287  0.32785304  1
  C  C242  1  0.66888078  0.32962126  0.37893481  1
  H  H243  1  0.69405670  0.39678815  0.42320845  1
  C  C244  1  0.71779005  0.31123831  0.40571495  1
  H  H245  1  0.74570791  0.17792171  0.34896600  1
  H  H246  1  0.67891481  0.28529488  0.30412781  1
  C  C247  1  0.83913497  0.21592947  0.43520967  1
  C  C248  1  0.69240544  0.27940662  0.35042407  1
  C  C249  1  0.80915576  0.29913094  0.46136002  1
  C  C250  1  0.79453006  0.21968223  0.40739480  1
  C  C251  1  0.92248203  0.13211789  0.43662435  1
  C  C252  1  0.58223732  0.41337886  0.38034993  1
  C  C253  1  0.83939070  0.47523043  0.33442201  1
  C  C254  1  0.88832947  0.46100164  0.35781004  1
  C  C255  1  0.93410055  0.25823269  0.31286284  1
  C  C256  1  0.54164380  0.46443395  0.35541748  1
  C  C257  1  0.94124607  0.19752130  0.48829652  1
  C  C258  1  0.96464033  0.10384883  0.46272846  1
  C  C259  1  0.85490199  0.36189411  0.30929909  1
  O  O260  1  0.80751616  0.34611648  0.28820566  1
  H  H261  1  0.94570179  0.18943360  0.29187674  1
  H  H262  1  0.95420722  0.08875822  0.41712783  1
  C  C263  1  0.96800354  0.35285500  0.36041440  1
  O  O264  1  0.56653767  0.49381121  0.27834364  1
  H  H265  1  0.91738566  0.46511136  0.47946098  1
  H  H266  1  0.98987607  0.46397301  0.40324673  1
  C  C267  1  0.99066626  0.25042918  0.33503805  1
  C  C268  1  0.53011690  0.49995297  0.30258542  1
  C  C269  1  0.87717803  0.42987815  0.53631116  1
  O  O270  1  0.80215725  0.43969931  0.70109107  1
  C  C271  1  0.51341839  0.24578429  0.61260242  1
  H  H272  1  0.57371443  0.13441247  0.72351666  1
  C  C273  1  0.79288934  0.15409095  0.67361325  1
  H  H274  1  0.80847296  0.39049712  0.64596777  1
  C  C275  1  0.96526714  0.38294468  0.59002151  1
  C  C276  1  0.82672093  0.13130131  0.62355966  1
  O  O277  1  0.78645808  0.17504268  0.72315449  1
  C  C278  1  0.79173073  0.26095352  0.70059369  1
  C  C279  1  0.94870247  0.30023998  0.53919368  1
  H  H280  1  0.56730503  0.22270586  0.62667095  1
  H  H281  1  0.84978915  0.18635152  0.60309559  1
  C  C282  1  0.81441679  0.23907203  0.64733912  1
  O  O283  1  0.83430420  0.45729836  0.51218550  1
  C  C284  1  0.99177868  0.34827146  0.61789536  1
  O  O285  1  0.52629251  0.30104317  0.68892895  1
  H  H286  1  0.96628520  0.42616485  0.63547953  1
  C  C287  1  0.98240419  0.18833599  0.51578660  1
  C  C288  1  0.51692193  0.07262394  0.73417737  1
  C  C289  1  0.99148475  0.26492349  0.56601552  1
  C  C290  1  0.73098330  0.34567121  0.94699307  1
  C  C291  1  0.64920980  0.26310391  0.95788246  1
  O  O292  1  0.76810645  0.15488842  0.80459482  1
  C  C293  1  0.62728261  0.18374754  0.98408544  1
  C  C294  1  0.56071858  0.35221286  0.91488633  1
  C  C295  1  0.56139448  0.27976063  0.94236680  1
  O  O296  1  0.83310566  0.25893532  0.80131415  1
  H  H297  1  0.79110173  0.33337948  0.95853923  1
  C  C298  1  0.64185850  0.42596468  0.90446017  1
  C  C299  1  0.55608333  0.12307013  0.99861970  1
  C  C300  1  0.72352357  0.42824131  0.92064668  1
  H  H301  1  0.51744398  0.43478502  0.86711461  1
  H  H302  1  0.50448280  0.37538255  0.90094789  1
  C  C303  1  0.64982660  0.49718405  0.87557162  1
  H  H304  1  0.77802377  0.48602874  0.90941066  1
  C  C305  1  0.52552672  0.45281034  0.80610397  1
  C  C306  1  0.57988209  0.48251315  0.85722765  1
  C  C307  1  0.60651816  0.61253505  0.03461256  1
  C  C308  1  0.76552632  0.71645427  0.03595031  1
  C  C309  1  0.61097763  0.83653724  0.13459675  1
  H  H310  1  0.68076775  0.66600797  0.16943774  1
  C  C311  1  0.53638514  0.84739626  0.11608864  1
  H  H312  1  0.56322813  0.61362922  0.08629733  1
  C  C313  1  0.85574443  0.68352019  0.03141261  1
  C  C314  1  0.99274260  0.59624752  0.11141389  1
  C  C315  1  0.62065609  0.72107945  0.16030631  1
  O  O316  1  0.93860658  0.64913645  0.09244333  1
  H  H317  1  0.90571620  0.78966591  0.03260779  1
  H  H318  1  0.74438155  0.92495959  0.14092182  1
  H  H319  1  0.74818661  0.86790776  0.03846404  1
  Cu  Cu320  1  0.82194633  0.60254554  0.09490126  1
  H  H321  1  0.58729963  0.75595426  0.03478075  1
  C  C322  1  0.54045908  0.93352906  0.09040312  1
  C  C323  1  0.69765633  0.57435944  0.03464270  1
  C  C324  1  0.69226247  0.92959595  0.12648240  1
  O  O325  1  0.77433354  0.69308301  0.20492375  1
  C  C326  1  0.54319556  0.65443801  0.17068641  1
  O  O327  1  0.83140512  0.75987404  0.19054106  1
  C  C328  1  0.54110448  0.51130416  0.19333612  1
  O  O329  1  0.71284571  0.54497044  0.09780735  1
  O  O330  1  0.57802255  0.93385163  0.24947531  1
  H  H331  1  0.76208096  0.64178343  0.43884960  1
  C  C332  1  0.69579609  0.76228720  0.38927460  1
  C  C333  1  0.81565373  0.69568368  0.42408859  1
  C  C334  1  0.94279200  0.83148666  0.38481076  1
  C  C335  1  0.85418520  0.82825308  0.37672011  1
  C  C336  1  0.90147037  0.70676714  0.43266587  1
  O  O337  1  0.67791117  0.78308887  0.35866191  1
  H  H338  1  0.83421121  0.87939497  0.35470245  1
  H  H339  1  0.61511911  0.75118914  0.35934790  1
  C  C340  1  0.79301187  0.76050838  0.39616256  1
  O  O341  1  0.63641644  0.77015109  0.40501339  1
  Cu  Cu342  1  0.57826385  0.70645039  0.26223338  1
  H  H343  1  0.91996884  0.67288862  0.45476105  1
  C  C344  1  0.96588355  0.78579746  0.41280107  1
  H  H345  1  0.86809246  0.53826193  0.37746800  1
  H  H346  1  0.78055481  0.55749739  0.33697300  1
  H  H347  1  0.99352660  0.89167949  0.37071641  1
  C  C348  1  0.83741898  0.82211327  0.60378666  1
  H  H349  1  0.52118424  0.97468108  0.59374410  1
  O  O350  1  0.55984643  0.56403897  0.72338634  1
  C  C351  1  0.86816323  0.64824244  0.61024266  1
  C  C352  1  0.78833697  0.85043602  0.65511503  1
  O  O353  1  0.91602407  0.62252699  0.74276989  1
  O  O354  1  0.68694378  0.70807437  0.73079406  1
  H  H355  1  0.80198004  0.61910571  0.55997709  1
  H  H356  1  0.87003471  0.59451780  0.63197960  1
  H  H357  1  0.91821893  0.78313234  0.69302156  1
  H  H358  1  0.83875041  0.88364134  0.58301258  1
  H  H359  1  0.77739529  0.70095111  0.65713916  1
  C  C360  1  0.62017928  0.62067302  0.73953522  1
  C  C361  1  0.81219702  0.93793613  0.62846949  1
  C  C362  1  0.78241315  0.96434173  0.67851486  1
  C  C363  1  0.50291319  0.56912603  0.62606740  1
  H  H364  1  0.76556753  0.91635549  0.70008010  1
  Cu  Cu365  1  0.79892937  0.60464244  0.73379266  1
  Cu  Cu366  1  0.56287574  0.54560950  0.68396460  1
  C  C367  1  0.97378784  0.69382221  0.68629070  1
  C  C368  1  0.98539239  0.54310955  0.73434684  1
  C  C369  1  0.89663098  0.52463624  0.58749407  1
  C  C370  1  0.85808066  0.52682306  0.56016236  1
  H  H371  1  0.97189938  0.80535019  0.64612202  1
  O  O372  1  0.56563083  0.52647643  0.64378932  1
  H  H373  1  0.71175266  0.55386515  0.86679073  1
  C  C374  1  0.75404443  0.89975970  0.87709332  1
  H  H375  1  0.63654557  0.92084109  0.94071176  1
  C  C376  1  0.90875719  0.85296595  0.88566003  1
  C  C377  1  0.61255633  0.59976900  0.77025603  1
  C  C378  1  0.89393475  0.88363785  0.91540425  1
  C  C379  1  0.64665535  0.89133087  0.91800293  1
  H  H380  1  0.85092432  0.85546389  0.84302355  1
  H  H381  1  0.73684298  0.73250544  0.78142524  1
  C  C382  1  0.83818672  0.86772043  0.86634676  1
  C  C383  1  0.99738765  0.82207953  0.87487308  1
  C  C384  1  0.67979570  0.65433067  0.78880157  1
  H  H385  1  0.58267158  0.84316243  0.87654326  1
  H  H386  1  0.53982561  0.62966840  0.98960240  1
  H  H387  1  0.79908630  0.92743576  0.94895535  1
  C  C388  1  0.58014092  0.86057895  0.90022467  1
  C  C389  1  0.73590899  0.90133074  0.90720083  1
  C  C390  1  0.81115151  0.90261425  0.92661736  1
  C  C391  1  0.66851810  0.59993868  0.81603072  1
  H  H392  1  0.94619306  0.87993656  0.92946744  1
  H  H393  1  0.71531529  0.64905410  0.83196183  1
  H  H394  1  0.53644537  0.81051206  0.95292206  1
  C  C395  1  0.59143439  0.50980211  0.82614748  1
  H  H396  1  0.70445117  0.93052317  0.86026467  1
  C  C397  1  0.53397864  0.50895019  0.77842554  1
  H  H398  1  0.58850890  0.93063991  0.76788027  1
  C  C399  1  0.52617018  0.97583435  0.75990050  1
