# generated using pymatgen
data_Zn4H24C42O13
_symmetry_space_group_name_H-M   'P 1'
_cell_length_a   24.95820689
_cell_length_b   8.77112726
_cell_length_c   18.33556288
_cell_angle_alpha   90.00000000
_cell_angle_beta   90.00000000
_cell_angle_gamma   90.00000000
_symmetry_Int_Tables_number   1
_chemical_formula_structural   Zn4H24C42O13
_chemical_formula_sum   'Zn16 H96 C168 O52'
_cell_volume   4013.86757021
_cell_formula_units_Z   4
loop_
 _symmetry_equiv_pos_site_id
 _symmetry_equiv_pos_as_xyz
  1  'x, y, z'
loop_
 _atom_site_type_symbol
 _atom_site_label
 _atom_site_symmetry_multiplicity
 _atom_site_fract_x
 _atom_site_fract_y
 _atom_site_fract_z
 _atom_site_occupancy
  C  C0  1  0.06694046  0.22872733  0.48241673  1
  O  O1  1  0.21414916  0.15245894  0.38660327  1
  O  O2  1  0.11655991  0.20852741  0.46423997  1
  C  C3  1  0.02550076  0.20277984  0.42732315  1
  Zn  Zn4  1  0.16487751  0.39036045  0.41308228  1
  C  C5  1  0.00695173  0.14978648  0.30151091  1
  C  C6  1  0.04350516  0.15920335  0.35799605  1
  H  H7  1  0.01937575  0.10123746  0.24986951  1
  H  H8  1  0.08747125  0.14103361  0.34495802  1
  O  O9  1  0.21015374  0.47721274  0.49014508  1
  H  H10  1  0.07471723  0.19366324  0.05614607  1
  H  H11  1  0.04617866  0.49106211  0.08646970  1
  O  O12  1  0.14529523  0.48514207  0.31191150  1
  H  H13  1  0.15851287  0.07574010  0.02357626  1
  C  C14  1  0.16348486  0.48023294  0.18342941  1
  C  C15  1  0.17980295  0.47908754  0.26100267  1
  H  H16  1  0.24180033  0.11150803  0.25552485  1
  C  C17  1  0.08794453  0.48866267  0.09741058  1
  O  O18  1  0.22809029  0.48564654  0.27353513  1
  H  H19  1  0.08006095  0.49099078  0.21698887  1
  C  C20  1  0.10731528  0.47993411  0.16988054  1
  H  H21  1  0.04228177  0.47802570  0.40919055  1
  C  C22  1  0.19979516  0.48552380  0.12386525  1
  C  C23  1  0.12614135  0.48191177  0.03896467  1
  C  C24  1  0.18263174  0.47110385  0.05237790  1
  H  H25  1  0.21006114  0.48122628  0.00706661  1
  H  H26  1  0.24641880  0.09981802  0.85387812  1
  C  C27  1  0.09481568  0.08292283  0.85210077  1
  H  H28  1  0.01988818  0.21081158  0.82913271  1
  H  H29  1  0.12027757  0.37976617  0.78202742  1
  O  O30  1  0.05380175  0.27076220  0.54481920  1
  C  C31  1  0.13410609  0.05273889  0.90538759  1
  H  H32  1  0.19419713  0.41271382  0.71429905  1
  C  C33  1  0.12822792  0.09843930  0.97997242  1
  C  C34  1  0.22770058  0.38566310  0.75181993  1
  C  C35  1  0.04110466  0.20969863  0.94496778  1
  H  H36  1  0.09971589  0.04654883  0.79385021  1
  C  C37  1  0.10678678  0.44937414  0.82886811  1
  C  C38  1  0.05049186  0.17025850  0.87239501  1
  H  H39  1  0.15928316  0.34615783  0.90700383  1
  O  O40  1  0.22699569  0.25590740  0.61541351  1
  C  C41  1  0.12682775  0.43131160  0.89989681  1
  C  C42  1  0.07997518  0.16587063  0.99849248  1
  C  C43  1  0.22858344  0.45015492  0.81938673  1
  Zn  Zn44  1  0.03676814  0.48782699  0.59460467  1
  C  C45  1  0.10224133  0.49525141  0.96191678  1
  O  O46  1  0.06250914  0.49322762  0.69809238  1
  C  C47  1  0.01903294  0.72291066  0.42093058  1
  H  H48  1  0.10606570  0.86245409  0.04254841  1
  C  C49  1  0.11703940  0.85590994  0.22800804  1
  O  O50  1  0.13665818  0.85824631  0.35170026  1
  O  O51  1  0.20573127  0.86092924  0.27653710  1
  C  C52  1  0.06442955  0.73276883  0.47648693  1
  H  H53  1  0.04978150  0.81641432  0.30067589  1
  C  C54  1  0.04114629  0.83091872  0.11501630  1
  H  H55  1  0.17696110  0.90148859  0.14767906  1
  C  C56  1  0.06434578  0.82013069  0.24505596  1
  C  C57  1  0.01725960  0.57700144  0.38592198  1
  C  C58  1  0.02677850  0.81557984  0.19002581  1
  C  C59  1  0.15644693  0.86432146  0.29079839  1
  H  H60  1  0.24319527  0.50252763  0.13413096  1
  C  C61  1  0.09672561  0.85358289  0.10147437  1
  C  C62  1  0.13412458  0.87181365  0.15515057  1
  C  C63  1  0.00147470  0.84550993  0.05330113  1
  O  O64  1  0.07919550  0.86137810  0.49917083  1
  H  H65  1  0.24938906  0.84852574  0.00823145  1
  Zn  Zn66  1  0.15614769  0.98424552  0.45711487  1
  H  H67  1  0.03664473  0.63776047  0.00473988  1
  C  C68  1  0.14390790  0.81534082  0.83901221  1
  H  H69  1  0.14356303  0.64308580  0.76278436  1
  H  H70  1  0.05397121  0.92935618  0.96633069  1
  C  C71  1  0.17362844  0.94596650  0.86544997  1
  C  C72  1  0.16558109  0.74240927  0.77881410  1
  C  C73  1  0.24221675  0.92448512  0.77008804  1
  C  C74  1  0.06041094  0.53895423  0.82635571  1
  C  C75  1  0.03809103  0.55603933  0.74957591  1
  C  C76  1  0.03469658  0.61105950  0.88718404  1
  C  C77  1  0.21061520  0.80520495  0.74166144  1
  O  O78  1  0.08469836  0.61603370  0.50711149  1
  O  O79  1  0.19294143  0.63845970  0.64441317  1
  Zn  Zn80  1  0.16987453  0.65395032  0.52868690  1
  C  C81  1  0.05479470  0.58667737  0.95708287  1
  C  C82  1  0.22717576  0.72768527  0.67278995  1
  H  H83  1  0.10995450  0.77033397  0.87243466  1
  O  O84  1  0.20435332  0.84445580  0.50781155  1
  C  C85  1  0.01279763  0.90158062  0.98230346  1
  O  O86  1  0.00327347  0.65239442  0.73606046  1
  H  H87  1  0.23581391  0.70147285  0.89697267  1
  C  C88  1  0.22364788  0.99618689  0.83368245  1
  H  H89  1  0.19684504  0.52785931  0.83591108  1
  C  C90  1  0.30395661  0.12454587  0.33823327  1
  C  C91  1  0.37909344  0.11245722  0.22511114  1
  O  O92  1  0.28172088  0.13159801  0.46159076  1
  O  O93  1  0.46347326  0.26661179  0.40177324  1
  C  C94  1  0.42344663  0.09736543  0.16815089  1
  C  C95  1  0.26379860  0.14041108  0.39809645  1
  H  H96  1  0.33563962  0.47341755  0.10211120  1
  H  H97  1  0.46207522  0.32047262  0.19836938  1
  C  C98  1  0.35840176  0.11322479  0.35310260  1
  C  C99  1  0.46366354  0.21512122  0.16513669  1
  C  C100  1  0.28510242  0.12017081  0.26634502  1
  H  H101  1  0.37323529  0.10852941  0.41020540  1
  H  H102  1  0.43968651  0.10064330  0.31009397  1
  C  C103  1  0.32369347  0.12613841  0.21117673  1
  H  H104  1  0.31369882  0.13464358  0.15537318  1
  C  C105  1  0.39623517  0.10354036  0.29683072  1
  C  C106  1  0.26608521  0.27333991  0.72996157  1
  C  C107  1  0.27400154  0.41268729  0.86260895  1
  H  H108  1  0.34901960  0.29668114  0.87422217  1
  H  H109  1  0.44113474  0.10870565  0.64109037  1
  C  C110  1  0.31243109  0.23977611  0.76977455  1
  O  O111  1  0.35156931  0.44065514  0.64377411  1
  C  C112  1  0.26304403  0.20229587  0.65571978  1
  C  C113  1  0.31515540  0.31646242  0.83678400  1
  H  H114  1  0.34374177  0.16775229  0.74384126  1
  Zn  Zn115  1  0.27190858  0.37143002  0.52139671  1
  O  O116  1  0.29544480  0.10228514  0.63482047  1
  C  C117  1  0.45583440  0.12265972  0.69720421  1
  C  C118  1  0.37608118  0.45538150  0.58348428  1
  C  C119  1  0.49418672  0.23464771  0.70939469  1
  C  C120  1  0.49534301  0.14173029  0.84005810  1
  O  O121  1  0.35201980  0.42899569  0.52296334  1
  C  C122  1  0.45979136  0.02222314  0.82559311  1
  C  C123  1  0.44086054  0.01783273  0.75277534  1
  H  H124  1  0.49150951  0.21133196  0.51373982  1
  C  C125  1  0.30666351  0.43004066  0.99372649  1
  H  H126  1  0.32198435  0.30882666  0.98661706  1
  H  H127  1  0.46899853  0.87005943  0.02919259  1
  C  C128  1  0.49532667  0.80413948  0.33716882  1
  Zn  Zn129  1  0.27401383  0.70574823  0.28516265  1
  O  O130  1  0.29810371  0.73358215  0.39211009  1
  H  H131  1  0.36856444  0.66368283  0.29309370  1
  C  C132  1  0.43587803  0.83859876  0.44095655  1
  C  C133  1  0.48665131  0.85267883  0.41335224  1
  C  C134  1  0.29505122  0.66734776  0.05970032  1
  H  H135  1  0.39072304  0.88586722  0.11567923  1
  C  C136  1  0.39347809  0.77366949  0.39732302  1
  H  H137  1  0.45892494  0.70438063  0.24201774  1
  C  C138  1  0.29944256  0.77402949  0.12827471  1
  C  C139  1  0.33901534  0.75888378  0.43309638  1
  C  C140  1  0.40157418  0.71783776  0.32636463  1
  O  O141  1  0.32352005  0.73390482  0.18799250  1
  C  C142  1  0.45174096  0.74556722  0.29507750  1
  O  O143  1  0.28118304  0.89868907  0.12327457  1
  O  O144  1  0.33392152  0.80541835  0.49732235  1
  C  C145  1  0.42338590  0.97114700  0.11752075  1
  C  C146  1  0.31744536  0.52307127  0.05498795  1
  C  C147  1  0.46848054  0.96400719  0.06960209  1
  C  C148  1  0.26648723  0.73412226  0.00382298  1
  H  H149  1  0.43028064  0.87692598  0.49740687  1
  H  H150  1  0.44368066  0.51051218  0.46355742  1
  H  H151  1  0.43657912  0.53268863  0.70203126  1
  O  O152  1  0.39322902  0.85558845  0.66256169  1
  Zn  Zn153  1  0.27100517  0.93472338  0.54848126  1
  C  C154  1  0.40529420  0.88923006  0.72917550  1
  C  C155  1  0.45849599  0.53862701  0.64990405  1
  H  H156  1  0.44549279  0.94239558  0.87064625  1
  Zn  Zn157  1  0.33934986  0.64040796  0.69674245  1
  O  O158  1  0.38323033  0.79071862  0.77119276  1
  O  O159  1  0.27052002  0.75880402  0.64054701  1
  H  H160  1  0.27714734  0.97104041  0.74624676  1
  C  C161  1  0.25914488  0.64858492  0.94114275  1
  C  C162  1  0.43523643  0.50221267  0.58294908  1
  C  C163  1  0.46344011  0.52280566  0.51537377  1
  C  C164  1  0.28069323  0.50175099  0.93346438  1
  C  C165  1  0.69734223  0.41879305  0.21640141  1
  C  C166  1  0.55272534  0.14784490  0.44221327  1
  C  C167  1  0.51191910  0.06813290  0.07198910  1
  C  C168  1  0.67612921  0.39688108  0.28858721  1
  C  C169  1  0.70819604  0.39523584  0.35127448  1
  C  C170  1  0.55685377  0.06041641  0.01596021  1
  Zn  Zn171  1  0.67820575  0.20040336  0.03348781  1
  C  C172  1  0.65365435  0.39734497  0.16068547  1
  O  O173  1  0.58760682  0.17124197  0.01239335  1
  O  O174  1  0.66465151  0.40934037  0.08305057  1
  H  H175  1  0.68951465  0.37656381  0.40416281  1
  O  O176  1  0.60656802  0.38701096  0.17645512  1
  H  H177  1  0.61392666  0.06703515  0.36441538  1
  O  O178  1  0.53009680  0.27507750  0.32709221  1
  H  H179  1  0.53696488  0.29127844  0.11816795  1
  C  C180  1  0.60292901  0.08118758  0.42428416  1
  H  H181  1  0.63385481  0.36779141  0.29821024  1
  C  C182  1  0.50610034  0.19531622  0.11791324  1
  C  C183  1  0.51006986  0.23364575  0.38500221  1
  H  H184  1  0.67747105  0.01823660  0.47920343  1
  C  C185  1  0.63588737  0.05185882  0.48647858  1
  H  H186  1  0.58427331  0.04193742  0.14971155  1
  H  H187  1  0.51154115  0.03254136  0.24463280  1
  H  H188  1  0.50810644  0.31778691  0.66775947  1
  C  C189  1  0.60064498  0.38512218  0.74879722  1
  H  H190  1  0.59637581  0.35270574  0.69176020  1
  C  C191  1  0.67897902  0.12834409  0.74925280  1
  C  C192  1  0.51697768  0.23669209  0.78237630  1
  H  H193  1  0.60129917  0.10308279  0.70921436  1
  H  H194  1  0.72053797  0.40023519  0.57441557  1
  C  C195  1  0.55815189  0.39653236  0.87617479  1
  H  H196  1  0.62019322  0.38412361  0.54033833  1
  C  C197  1  0.69269219  0.49353752  0.58423018  1
  C  C198  1  0.55964358  0.10547181  0.57289246  1
  H  H199  1  0.52387472  0.36119144  0.90967511  1
  C  C200  1  0.56014982  0.35408101  0.80023118  1
  C  C201  1  0.64306086  0.10839553  0.69377596  1
  H  H202  1  0.72848915  0.07935454  0.54404736  1
  H  H203  1  0.54323037  0.09576335  0.62577686  1
  C  C204  1  0.64276960  0.47926511  0.77263429  1
  H  H205  1  0.66872827  0.14808835  0.80999631  1
  C  C206  1  0.63870314  0.48359422  0.56451497  1
  C  C207  1  0.61492995  0.07804292  0.55885656  1
  C  C208  1  0.65578041  0.08972542  0.61860788  1
  O  O209  1  0.69831477  0.06168167  0.94925669  1
  C  C210  1  0.71253833  0.09198738  0.59951086  1
  C  C211  1  0.59995539  0.48749973  0.89823789  1
  C  C212  1  0.73277525  0.14163973  0.72641564  1
  C  C213  1  0.74898722  0.11493706  0.65316018  1
  H  H214  1  0.50684956  0.15796830  0.89882633  1
  C  C215  1  0.52965177  0.15395366  0.51133559  1
  H  H216  1  0.59309655  0.63795149  0.35241604  1
  Zn  Zn217  1  0.70841683  0.58666497  0.04269907  1
  C  C218  1  0.59377372  0.72902228  0.31103559  1
  C  C219  1  0.62636134  0.85650857  0.20024107  1
  C  C220  1  0.54853921  0.82588782  0.29978486  1
  C  C221  1  0.54479230  0.94761080  0.24801264  1
  C  C222  1  0.66582465  0.84869259  0.14031137  1
  C  C223  1  0.63445649  0.75338590  0.26243370  1
  C  C224  1  0.58534357  0.96301057  0.19480084  1
  O  O225  1  0.70181755  0.74943253  0.13535883  1
  H  H226  1  0.67105495  0.67844519  0.26682894  1
  O  O227  1  0.66088200  0.94467240  0.08847565  1
  H  H228  1  0.51944761  0.91060139  0.44528771  1
  H  H229  1  0.53904508  0.58207024  0.46431479  1
  C  C230  1  0.54385849  0.58613310  0.58436020  1
  H  H231  1  0.69402346  0.83304611  0.68573050  1
  C  C232  1  0.67631931  0.74019962  0.65288476  1
  H  H233  1  0.59401220  0.81972595  0.64793471  1
  O  O234  1  0.72283077  0.66358972  0.84049566  1
  O  O235  1  0.67686484  0.67331653  0.94166343  1
  C  C236  1  0.62389125  0.73628253  0.63046890  1
  C  C237  1  0.51328515  0.57473323  0.65053390  1
  C  C238  1  0.68438329  0.61401940  0.87597909  1
  Zn  Zn239  1  0.64472057  0.89505523  0.96061380  1
  H  H240  1  0.53299268  0.59443111  0.70267527  1
  C  C241  1  0.70875646  0.61599179  0.63035989  1
  H  H242  1  0.67450682  0.52083299  0.73295452  1
  C  C243  1  0.60421342  0.60297217  0.59258894  1
  H  H244  1  0.60561838  0.52174456  0.95486282  1
  O  O245  1  0.56227355  0.95046701  0.97316243  1
  C  C246  1  0.64125426  0.51740006  0.84634870  1
  C  C247  1  0.51809691  0.56560433  0.51720522  1
  C  C248  1  0.85962796  0.16948886  0.27131736  1
  C  C249  1  0.97093663  0.21630999  0.44397185  1
  H  H250  1  0.88979577  0.20701662  0.40303109  1
  C  C251  1  0.84064691  0.12122413  0.14765123  1
  O  O252  1  0.81684202  0.09524034  0.02641332  1
  C  C253  1  0.93187477  0.09124590  0.18686186  1
  C  C254  1  0.89335508  0.07486292  0.13377811  1
  H  H255  1  0.95912096  0.41681346  0.20660900  1
  C  C256  1  0.93225285  0.19916277  0.39160338  1
  H  H257  1  0.78003501  0.21272399  0.22953877  1
  C  C258  1  0.95022720  0.16657299  0.31920409  1
  C  C259  1  0.82206059  0.16262588  0.21822703  1
  C  C260  1  0.79960833  0.13058976  0.08820012  1
  C  C261  1  0.91520173  0.14329454  0.25584034  1
  H  H262  1  0.84644177  0.20759048  0.32529037  1
  C  C263  1  0.90144086  0.46864426  0.12496002  1
  H  H264  1  0.97343304  0.04266437  0.17876831  1
  H  H265  1  0.77171504  0.48095486  0.15643998  1
  O  O266  1  0.97451276  0.30061780  0.02877467  1
  C  C267  1  0.79938286  0.33439765  0.45941755  1
  C  C268  1  0.80511618  0.43342456  0.39691820  1
  C  C269  1  0.76342147  0.43233589  0.33748247  1
  H  H270  1  0.91296979  0.37096843  0.08964852  1
  H  H271  1  0.90307898  0.03043261  0.07723085  1
  H  H272  1  0.97793347  0.42657934  0.31498467  1
  C  C273  1  0.78552936  0.47022673  0.26898430  1
  H  H274  1  0.95977933  0.25396694  0.49850417  1
  H  H275  1  0.82934159  0.49237163  0.26222487  1
  H  H276  1  0.76309234  0.26690941  0.46820951  1
  O  O277  1  0.75448906  0.18738138  0.09846773  1
  C  C278  1  0.75060461  0.46402663  0.20886824  1
  C  C279  1  0.92682739  0.49767484  0.19141372  1
  H  H280  1  0.79171813  0.11417302  0.63835398  1
  Zn  Zn281  1  0.77889068  0.04067860  0.92579802  1
  O  O282  1  0.96095878  0.32555300  0.91129496  1
  C  C283  1  0.77510977  0.18942948  0.77819248  1
  H  H284  1  0.82810395  0.27072584  0.56902396  1
  C  C285  1  0.98911474  0.28529928  0.96688687  1
  C  C286  1  0.83580361  0.33188184  0.51820027  1
  Zn  Zn287  1  0.89764986  0.44778175  0.89092059  1
  C  C288  1  0.88255979  0.42010436  0.50972911  1
  O  O289  1  0.91538446  0.37211378  0.63321805  1
  C  C290  1  0.92076461  0.43413568  0.57316071  1
  O  O291  1  0.82271289  0.20531668  0.75489322  1
  Zn  Zn292  1  0.86101883  0.41092929  0.72385277  1
  O  O293  1  0.76443650  0.21633200  0.84465607  1
  O  O294  1  0.79014037  0.48482221  0.66036336  1
  O  O295  1  0.85042089  0.43660594  0.98935393  1
  C  C296  1  0.94761505  0.79576321  0.06647427  1
  C  C297  1  0.87568802  0.73203297  0.20480129  1
  C  C298  1  0.86169679  0.56499520  0.10052914  1
  H  H299  1  0.93371999  0.90407676  0.30320240  1
  C  C300  1  0.91713603  0.63206247  0.23081375  1
  H  H301  1  0.86927294  0.83956740  0.23458546  1
  H  H302  1  0.81429000  0.76866675  0.12380771  1
  H  H303  1  0.93762078  0.74387964  0.11994024  1
  O  O304  1  0.79290294  0.61881575  0.01622424  1
  C  C305  1  0.84803772  0.69712251  0.14337492  1
  H  H306  1  0.87057349  0.76099913  0.02166575  1
  H  H307  1  0.98528757  0.78592936  0.19910004  1
  H  H308  1  0.98576710  0.95966812  0.41121615  1
  C  C309  1  0.94805392  0.66540457  0.29701661  1
  H  H310  1  0.92863491  0.59182420  0.44724182  1
  C  C311  1  0.89135136  0.51418009  0.44904613  1
  C  C312  1  0.95226605  0.80787889  0.33376545  1
  C  C313  1  0.97961214  0.54695678  0.33244009  1
  H  H314  1  0.86079275  0.59255181  0.34734839  1
  C  C315  1  0.83157961  0.53570724  0.03153438  1
  C  C316  1  0.85367649  0.51998840  0.39344363  1
  C  C317  1  0.98538692  0.83881726  0.39130061  1
  C  C318  1  0.91105633  0.80401576  0.00997553  1
  Zn  Zn319  1  0.92741876  0.69834201  0.76239487  1
  O  O320  1  0.87522933  0.55454641  0.80475622  1
  C  C321  1  0.76305145  0.60416499  0.66660616  1
  O  O322  1  0.90892716  0.91262312  0.81476177  1
  C  C323  1  0.88841231  0.89547237  0.87703998  1
  O  O324  1  0.83683328  0.87517144  0.88179512  1
  C  C325  1  0.92402689  0.86566578  0.94093969  1
  O  O326  1  0.77784528  0.71054119  0.70680183  1
  Zn  Zn327  1  0.80534960  0.65412453  0.82034554  1
  C  C328  1  0.97690023  0.91065404  0.92477576  1
  O  O329  1  0.96264728  0.51813125  0.55870359  1
  H  H330  1  0.99082935  0.93753873  0.86837500  1
  H  H331  1  0.99743242  0.67877986  0.87750131  1
