# generated using pymatgen
data_CuH4C9(NO2)2
_symmetry_space_group_name_H-M   'P 1'
_cell_length_a   26.28494613
_cell_length_b   26.14238548
_cell_length_c   10.62963181
_cell_angle_alpha   90.00000000
_cell_angle_beta   90.00000000
_cell_angle_gamma   90.00000000
_symmetry_Int_Tables_number   1
_chemical_formula_structural   CuH4C9(NO2)2
_chemical_formula_sum   'Cu24 H96 C216 N48 O96'
_cell_volume   7304.16419194
_cell_formula_units_Z   24
loop_
 _symmetry_equiv_pos_site_id
 _symmetry_equiv_pos_as_xyz
  1  'x, y, z'
loop_
 _atom_site_type_symbol
 _atom_site_label
 _atom_site_symmetry_multiplicity
 _atom_site_fract_x
 _atom_site_fract_y
 _atom_site_fract_z
 _atom_site_occupancy
  N  N0  1  0.14155061  0.04006628  0.13968370  1
  H  H1  1  0.22816980  0.12852126  0.17335156  1
  O  O2  1  0.02122737  0.14243811  0.34663215  1
  H  H3  1  0.15970535  0.10861069  0.03151813  1
  C  C4  1  0.18352405  0.01179977  0.13873849  1
  N  N5  1  0.22585952  0.03512851  0.05404279  1
  C  C6  1  0.11270408  0.01267532  0.20714226  1
  C  C7  1  0.23547579  0.16223608  0.10554510  1
  O  O8  1  0.49259912  0.04903837  0.21315187  1
  O  O9  1  0.28541238  0.14588955  0.31883800  1
  O  O10  1  0.45140676  0.09954516  0.08133593  1
  C  C11  1  0.48319724  0.09246867  0.16448707  1
  C  C12  1  0.49177913  0.18728153  0.16656312  1
  C  C13  1  0.30049172  0.18474395  0.26110370  1
  O  O14  1  0.33708076  0.21060760  0.29275126  1
  C  C15  1  0.29275178  0.23616063  0.06037363  1
  C  C16  1  0.27447084  0.19631932  0.13184982  1
  H  H17  1  0.46707165  0.19187913  0.08034392  1
  C  C18  1  0.26700340  0.00504509  0.01098256  1
  C  C19  1  0.08903527  0.19950308  0.75153193  1
  N  N20  1  0.06386862  0.15969317  0.70451663  1
  C  C21  1  0.07583277  0.11190715  0.73283669  1
  N  N22  1  0.12533862  0.19262134  0.83720768  1
  N  N23  1  0.04561759  0.07440016  0.65583289  1
  C  C24  1  0.13023004  0.14388041  0.85787945  1
  N  N25  1  0.10894362  0.10052945  0.82247173  1
  H  H26  1  0.19933835  0.22376503  0.84077358  1
  C  C27  1  0.22345473  0.21161745  0.92036206  1
  C  C28  1  0.05378440  0.02039047  0.65648666  1
  H  H29  1  0.13159378  0.02204280  0.73480465  1
  C  C30  1  0.03246394  0.21888525  0.53338019  1
  N  N31  1  0.17210021  0.13025897  0.96036994  1
  H  H32  1  0.02148488  0.08941185  0.59268777  1
  C  C33  1  0.20871310  0.16761110  0.99294480  1
  H  H34  1  0.21322245  0.05835181  0.98844299  1
  H  H35  1  0.06755176  0.19457686  0.52806362  1
  O  O36  1  0.41834651  0.01920976  0.76891249  1
  O  O37  1  0.38837576  0.08783473  0.86482012  1
  H  H38  1  0.30539609  0.07449220  0.94748390  1
  C  C39  1  0.26470822  0.24161614  0.94902704  1
  C  C40  1  0.30738256  0.03209913  0.95344805  1
  Cu  Cu41  1  0.44899108  0.11877112  0.89741752  1
  C  C42  1  0.34682372  0.00476490  0.89764577  1
  C  C43  1  0.38822757  0.03814852  0.83455579  1
  N  N44  1  0.08561389  0.37856989  0.28743057  1
  C  C45  1  0.12170754  0.41463189  0.29438060  1
  N  N46  1  0.16461046  0.40677667  0.19754015  1
  H  H47  1  0.18166540  0.37180806  0.20468125  1
  C  C48  1  0.18590006  0.44746126  0.12631400  1
  C  C49  1  0.04353163  0.38194580  0.36058527  1
  N  N50  1  0.03394603  0.42316348  0.42794203  1
  N  N51  1  0.11710266  0.45609867  0.35266469  1
  C  C52  1  0.07274417  0.45426796  0.41768264  1
  H  H53  1  0.08731749  0.44057052  0.12519592  1
  N  N54  1  0.05681997  0.45134343  0.07856178  1
  C  C55  1  0.02861601  0.36588630  0.06384454  1
  H  H56  1  0.06217019  0.35120336  0.10795797  1
  H  H57  1  0.02362643  0.30973224  0.30344184  1
  C  C58  1  0.01912563  0.41993952  0.05034050  1
  O  O59  1  0.03411752  0.25982480  0.05946469  1
  N  N60  1  0.00486109  0.34241774  0.33994143  1
  C  C61  1  0.17339168  0.49926250  0.15022706  1
  C  C62  1  0.21461925  0.43673331  0.01854445  1
  C  C63  1  0.49901112  0.28313505  0.17296027  1
  O  O64  1  0.48909005  0.45787873  0.17153976  1
  O  O65  1  0.29796620  0.44361242  0.48204725  1
  H  H66  1  0.39105240  0.46912300  0.47342296  1
  O  O67  1  0.46684171  0.28394813  0.09275774  1
  H  H68  1  0.32478174  0.26049966  0.08961850  1
  C  C69  1  0.12588574  0.42951562  0.74888543  1
  C  C70  1  0.12956600  0.37195591  0.74070442  1
  C  C71  1  0.09757662  0.45611988  0.83754781  1
  C  C72  1  0.15609870  0.45511375  0.66446239  1
  O  O73  1  0.09726282  0.34721991  0.79185326  1
  H  H74  1  0.07402682  0.43357897  0.90617785  1
  O  O75  1  0.15872794  0.35071093  0.65723070  1
  H  H76  1  0.18051023  0.43606509  0.59320015  1
  C  C77  1  0.23040765  0.47509982  0.93608050  1
  H  H78  1  0.08351183  0.28384663  0.76944184  1
  Cu  Cu79  1  0.22947997  0.36289168  0.71304749  1
  H  H80  1  0.22181627  0.39774453  0.99014513  1
  O  O81  1  0.24594924  0.29704812  0.76196895  1
  C  C82  1  0.03311938  0.25634578  0.62807328  1
  N  N83  1  0.07484911  0.25235032  0.71521040  1
  C  C84  1  0.27651684  0.28512186  0.85759066  1
  C  C85  1  0.36539949  0.39277745  0.54958217  1
  O  O86  1  0.31423093  0.30721328  0.87604169  1
  C  C87  1  0.25643662  0.46114307  0.81870304  1
  O  O88  1  0.26395084  0.41361149  0.80126743  1
  O  O89  1  0.26940667  0.49605115  0.74614300  1
  C  C90  1  0.42965556  0.33780488  0.62603061  1
  C  C91  1  0.45049860  0.42266568  0.55246529  1
  C  C92  1  0.46681644  0.37507945  0.60136357  1
  C  C93  1  0.37796006  0.34545696  0.60253595  1
  H  H94  1  0.34875077  0.31335832  0.61737610  1
  O  O95  1  0.27873068  0.36615591  0.55519208  1
  N  N96  1  0.44704438  0.28885455  0.66258031  1
  H  H97  1  0.42338656  0.25816612  0.65053265  1
  C  C98  1  0.31065027  0.40119629  0.52671231  1
  C  C99  1  0.48977899  0.46139907  0.53044290  1
  Cu  Cu100  1  0.28876596  0.49726162  0.57709799  1
  C  C101  1  0.40012135  0.43249647  0.52432503  1
  C  C102  1  0.05689653  0.54497471  0.43006955  1
  C  C103  1  0.07892896  0.63170420  0.38716062  1
  C  C104  1  0.04680451  0.63238929  0.28492490  1
  O  O105  1  0.13962781  0.60018858  0.17062015  1
  H  H106  1  0.04361136  0.66788296  0.22792185  1
  C  C107  1  0.02513743  0.54302128  0.32460426  1
  C  C108  1  0.16608405  0.58850305  0.08051725  1
  C  C109  1  0.11096996  0.67953104  0.40675075  1
  C  C110  1  0.08331293  0.58964028  0.46881620  1
  H  H111  1  0.21142524  0.72738037  0.17528141  1
  Cu  Cu112  1  0.05178856  0.52135005  0.07411518  1
  C  C113  1  0.18529313  0.53533032  0.06151782  1
  O  O114  1  0.10157469  0.71784065  0.35220184  1
  C  C115  1  0.01823773  0.58758153  0.25816454  1
  C  C116  1  0.23166233  0.73582699  0.41348167  1
  H  H117  1  0.15746226  0.51034112  0.23948601  1
  O  O118  1  0.24285188  0.69322842  0.36964627  1
  Cu  Cu119  1  0.21598605  0.63425225  0.46103179  1
  H  H120  1  0.00513034  0.50793727  0.29704141  1
  O  O121  1  0.14823117  0.67731695  0.49399387  1
  N  N122  1  0.49519959  0.60025706  0.35614847  1
  O  O123  1  0.48552451  0.51657408  0.02141692  1
  C  C124  1  0.31883958  0.57954557  0.44315845  1
  H  H125  1  0.30934998  0.64526582  0.25669905  1
  C  C126  1  0.41084071  0.58673601  0.39506048  1
  C  C127  1  0.34985636  0.63436785  0.27226112  1
  C  C128  1  0.38856974  0.66034173  0.21153098  1
  C  C129  1  0.43894742  0.65096222  0.23163508  1
  H  H130  1  0.41832164  0.55629813  0.46597759  1
  O  O131  1  0.40500517  0.73621479  0.10396272  1
  C  C132  1  0.37042618  0.70498395  0.13808652  1
  C  C133  1  0.44944556  0.61235507  0.32308378  1
  C  C134  1  0.36113372  0.59832647  0.36528164  1
  O  O135  1  0.27324394  0.58927819  0.41817017  1
  O  O136  1  0.48244351  0.50607068  0.48842616  1
  H  H137  1  0.46849212  0.67426099  0.18464896  1
  O  O138  1  0.32445741  0.71461531  0.12094970  1
  C  C139  1  0.08464455  0.67853261  0.73036951  1
  C  C140  1  0.04123516  0.65615841  0.66387919  1
  O  O141  1  0.10245449  0.65471634  0.82356743  1
  H  H142  1  0.04398290  0.58343267  0.76771397  1
  H  H143  1  0.22356965  0.55449549  0.87925374  1
  H  H144  1  0.13232065  0.57884457  0.75082670  1
  C  C145  1  0.13002320  0.53697102  0.74603614  1
  N  N146  1  0.07847725  0.53977407  0.92091716  1
  Cu  Cu147  1  0.16867202  0.72976522  0.61066637  1
  C  C148  1  0.19206658  0.53540658  0.57216498  1
  O  O149  1  0.10530451  0.72012041  0.69731251  1
  H  H150  1  0.08889863  0.57671183  0.91106721  1
  Cu  Cu151  1  0.14159102  0.68114547  0.94612851  1
  O  O152  1  0.19409928  0.58480061  0.57316051  1
  C  C153  1  0.21588219  0.52484856  0.95293367  1
  C  C154  1  0.02486786  0.60706111  0.69877367  1
  C  C155  1  0.09760790  0.50985968  0.83235030  1
  C  C156  1  0.15935121  0.50957234  0.66433291  1
  H  H157  1  0.03264561  0.71994491  0.53819201  1
  C  C158  1  0.01606370  0.68382955  0.57048185  1
  H  H159  1  0.10709601  0.59176354  0.55758140  1
  H  H160  1  0.09084782  0.50341142  0.58431387  1
  O  O161  1  0.18083495  0.73836319  0.96763419  1
  O  O162  1  0.22002872  0.50775745  0.51052968  1
  H  H163  1  0.00085221  0.51249133  0.59933602  1
  O  O164  1  0.23181667  0.74245289  0.53170550  1
  N  N165  1  0.06818972  0.50275150  0.50621557  1
  O  O166  1  0.17815757  0.61971555  0.99160187  1
  O  O167  1  0.33055419  0.54593854  0.52652082  1
  C  C168  1  0.17389241  0.86154459  0.30126061  1
  N  N169  1  0.18564933  0.96622240  0.19639969  1
  N  N170  1  0.14721875  0.90456620  0.34781754  1
  C  C171  1  0.14613468  0.95297581  0.26318657  1
  C  C172  1  0.16625864  0.84991240  0.17385340  1
  C  C173  1  0.19898949  0.82778797  0.38244126  1
  C  C174  1  0.18031890  0.80171536  0.13045491  1
  H  H175  1  0.15031872  0.87786478  0.10419985  1
  C  C176  1  0.21293373  0.77899487  0.33603043  1
  N  N177  1  0.09982449  0.97401101  0.27084061  1
  H  H178  1  0.15517163  0.91544784  0.43570712  1
  C  C179  1  0.20318619  0.76575619  0.21237019  1
  H  H180  1  0.23707216  0.92825994  0.05613907  1
  H  H181  1  0.20905396  0.83952870  0.47787757  1
  O  O182  1  0.00888448  0.85601410  0.47831070  1
  O  O183  1  0.42747327  0.84758217  0.12033058  1
  O  O184  1  0.27768366  0.84377580  0.01549496  1
  Cu  Cu185  1  0.46206436  0.99035138  0.16653616  1
  O  O186  1  0.42654866  0.93258625  0.10378577  1
  C  C187  1  0.44677940  0.88913137  0.08237811  1
  C  C188  1  0.49483208  0.89009123  0.01677675  1
  Cu  Cu189  1  0.29773218  0.77607792  0.08195458  1
  C  C190  1  0.26681252  0.95025389  0.00881138  1
  Cu  Cu191  1  0.38679288  0.79811084  0.02675576  1
  C  C192  1  0.07891782  0.91643648  0.59401808  1
  C  C193  1  0.11276262  0.94903202  0.65476484  1
  O  O194  1  0.20086083  0.95273683  0.72137882  1
  O  O195  1  0.17251979  0.88119488  0.64176642  1
  C  C196  1  0.16850578  0.92682049  0.67230128  1
  C  C197  1  0.03205315  0.93767839  0.56045349  1
  H  H198  1  0.09083894  0.87877521  0.57336143  1
  C  C199  1  0.01955728  0.98854197  0.59129215  1
  O  O200  1  0.15087254  0.81348461  0.92222390  1
  C  C201  1  0.10249399  0.99912621  0.68510981  1
  C  C202  1  0.16914244  0.78550984  0.99822254  1
  O  O203  1  0.35573840  0.85078532  0.93905027  1
  C  C204  1  0.31282927  0.86979572  0.96917727  1
  H  H205  1  0.37832669  0.92882999  0.84632842  1
  H  H206  1  0.49215239  0.96858058  0.94164616  1
  C  C207  1  0.30902319  0.92618487  0.95443272  1
  C  C208  1  0.34850746  0.95122474  0.89434267  1
  C  C209  1  0.64441308  0.07105454  0.32946191  1
  C  C210  1  0.65392170  0.12182186  0.29279703  1
  H  H211  1  0.64375826  0.15145274  0.35993692  1
  C  C212  1  0.68623096  0.13356460  0.18939307  1
  C  C213  1  0.55596983  0.18330237  0.36998083  1
  C  C214  1  0.70059152  0.09292880  0.10850339  1
  N  N215  1  0.62872417  0.06388949  0.45541761  1
  C  C216  1  0.53789987  0.13787222  0.31736760  1
  H  H217  1  0.55198871  0.09968283  0.34740875  1
  C  C218  1  0.68613622  0.04306888  0.13632846  1
  C  C219  1  0.65569029  0.03279328  0.23923233  1
  C  C220  1  0.54700986  0.23234001  0.32214003  1
  C  C221  1  0.70440470  0.18693337  0.17195375  1
  O  O222  1  0.68535287  0.22093558  0.23415257  1
  C  C223  1  0.51435912  0.23107298  0.21901485  1
  H  H224  1  0.72305274  0.10123975  0.02870025  1
  O  O225  1  0.74214931  0.19407296  0.09114030  1
  C  C226  1  0.50532152  0.14097052  0.21498487  1
  N  N227  1  0.58071848  0.18410761  0.49092359  1
  N  N228  1  0.79253632  0.00047102  0.36517012  1
  C  C229  1  0.94692953  0.24375646  0.48543591  1
  H  H230  1  0.91385841  0.23987138  0.42224472  1
  C  C231  1  0.98817679  0.21327810  0.45993064  1
  C  C232  1  0.76842117  0.12739371  0.46117271  1
  N  N233  1  0.78800822  0.09191915  0.38371854  1
  O  O234  1  0.87143172  0.22800857  0.17845318  1
  C  C235  1  0.78031738  0.04684461  0.43608216  1
  H  H236  1  0.75676215  0.18466000  0.31004280  1
  C  C237  1  0.98620188  0.17212496  0.36142091  1
  Cu  Cu238  1  0.93915003  0.20705996  0.14862087  1
  N  N239  1  0.77581257  0.18078872  0.39287066  1
  O  O240  1  0.94403025  0.17125728  0.29696492  1
  H  H241  1  0.80415824  0.00792097  0.27017066  1
  C  C242  1  0.77842908  0.22183184  0.47793883  1
  C  C243  1  0.69531529  0.15897594  0.78960893  1
  C  C244  1  0.66099886  0.19419462  0.84442183  1
  C  C245  1  0.68045205  0.10696458  0.78279269  1
  C  C246  1  0.62993440  0.09341652  0.81620868  1
  C  C247  1  0.61004860  0.18284911  0.87357151  1
  C  C248  1  0.59741744  0.13257110  0.85256958  1
  N  N249  1  0.70991653  0.06748707  0.72355135  1
  H  H250  1  0.61814553  0.05288758  0.80707297  1
  C  C251  1  0.54258786  0.11485859  0.87468491  1
  H  H252  1  0.69260124  0.03281282  0.71576423  1
  O  O253  1  0.53320726  0.06945017  0.85975719  1
  N  N254  1  0.60486436  0.01013486  0.61931394  1
  C  C255  1  0.56297884  0.23019413  0.57009876  1
  H  H256  1  0.58491122  0.21268339  0.90959526  1
  N  N257  1  0.51329106  0.23091548  0.59238041  1
  H  H258  1  0.73180215  0.17135800  0.74719121  1
  H  H259  1  0.62908453  0.09167381  0.52616725  1
  C  C260  1  0.74037111  0.08160210  0.61387909  1
  O  O261  1  0.50898017  0.14771910  0.90595040  1
  H  H262  1  0.57331613  0.14962368  0.53781161  1
  H  H263  1  0.54839620  0.00760571  0.81986201  1
  N  N264  1  0.74452355  0.12957394  0.56666816  1
  C  C265  1  0.67998068  0.24683402  0.87657261  1
  O  O266  1  0.73245609  0.00800638  0.96481912  1
  C  C267  1  0.62545656  0.00990573  0.50117290  1
  H  H268  1  0.98175477  0.00397698  0.56833164  1
  H  H269  1  0.82316298  0.18182116  0.61892882  1
  C  C270  1  0.80305735  0.21703043  0.59428278  1
  N  N271  1  0.75846892  0.04142188  0.55165066  1
  O  O272  1  0.85660205  0.21645754  0.82784849  1
  H  H273  1  0.56033221  0.46972272  0.30356302  1
  O  O274  1  0.63027066  0.46475959  0.47378389  1
  O  O275  1  0.57603327  0.39908012  0.10174745  1
  Cu  Cu276  1  0.50839040  0.38978541  0.18630502  1
  O  O277  1  0.52099999  0.32385593  0.21644255  1
  H  H278  1  0.56321511  0.26498212  0.37413538  1
  C  C279  1  0.65485109  0.49218212  0.39273667  1
  C  C280  1  0.50692935  0.49826245  0.11114838  1
  O  O281  1  0.70131155  0.49388447  0.40414737  1
  O  O282  1  0.72779984  0.37782479  0.40021898  1
  Cu  Cu283  1  0.74873684  0.44290642  0.37276442  1
  H  H284  1  0.61781559  0.48661236  0.02474616  1
  H  H285  1  0.74654447  0.27735035  0.34065727  1
  O  O286  1  0.80169794  0.27354485  0.16509943  1
  C  C287  1  0.98708880  0.33594294  0.02882541  1
  C  C288  1  0.84959288  0.36302655  0.25315188  1
  Cu  Cu289  1  0.76769841  0.25598687  0.01991826  1
  O  O290  1  0.95397061  0.25089317  0.01965118  1
  C  C291  1  0.99473108  0.27873789  0.02820648  1
  C  C292  1  0.84629665  0.45301175  0.27381618  1
  C  C293  1  0.95318074  0.35506609  0.31462716  1
  C  C294  1  0.75617121  0.26962980  0.44027563  1
  C  C295  1  0.87487026  0.31467931  0.24076318  1
  H  H296  1  0.94745480  0.43932404  0.33845949  1
  C  C297  1  0.92782700  0.40241592  0.32169643  1
  C  C298  1  0.84845431  0.27075561  0.19829013  1
  C  C299  1  0.87718092  0.40507324  0.28665630  1
  C  C300  1  0.92567475  0.31182867  0.27653005  1
  H  H301  1  0.94461584  0.27557455  0.25699631  1
  O  O302  1  0.87672458  0.49059554  0.27256017  1
  O  O303  1  0.79956509  0.45576697  0.26120006  1
  H  H304  1  0.80786822  0.36450504  0.23292102  1
  C  C305  1  0.97295321  0.44061398  0.01185011  1
  C  C306  1  0.61397057  0.37834126  0.78272445  1
  C  C307  1  0.63804105  0.42487115  0.75122199  1
  C  C308  1  0.59168448  0.36994138  0.89643318  1
  C  C309  1  0.61632675  0.45605938  0.96023555  1
  N  N310  1  0.53728979  0.30563555  0.69181582  1
  C  C311  1  0.63666335  0.46219589  0.84204670  1
  C  C312  1  0.58737781  0.29687129  0.66513356  1
  N  N313  1  0.62636508  0.33503657  0.70152112  1
  H  H314  1  0.65709239  0.43452274  0.65945318  1
  H  H315  1  0.65861127  0.33721805  0.64102315  1
  H  H316  1  0.57447334  0.33271339  0.91176058  1
  H  H317  1  0.50816343  0.36746575  0.61104334  1
  Cu  Cu318  1  0.58933867  0.48746421  0.60743376  1
  O  O319  1  0.73461669  0.38514402  0.60503246  1
  C  C320  1  0.50289179  0.27377918  0.65125968  1
  O  O321  1  0.72964996  0.25364941  0.86788200  1
  O  O322  1  0.53453248  0.44890496  0.55397357  1
  N  N323  1  0.60410841  0.25779622  0.59977372  1
  O  O324  1  0.65427345  0.28119621  0.91001853  1
  C  C325  1  0.59134403  0.40971749  0.99046438  1
  C  C326  1  0.73510004  0.35975710  0.51155675  1
  C  C327  1  0.83118831  0.25237717  0.79742117  1
  C  C328  1  0.79935172  0.25666438  0.68021739  1
  H  H329  1  0.99208222  0.32462778  0.70848445  1
  C  C330  1  0.93333766  0.40654704  0.98770195  1
  H  H331  1  0.90720412  0.32607572  0.97187882  1
  N  N332  1  0.91470567  0.47060447  0.56904772  1
  C  C333  1  0.75336125  0.30505650  0.53229986  1
  O  O334  1  0.84613510  0.39776186  0.94052481  1
  N  N335  1  0.82354337  0.47011005  0.62086906  1
  C  C336  1  0.90178541  0.31649006  0.58573747  1
  O  O337  1  0.86931605  0.31082846  0.51215717  1
  O  O338  1  0.87707811  0.47617839  0.97230747  1
  Cu  Cu339  1  0.84780287  0.36289933  0.79581685  1
  H  H340  1  0.76513180  0.32908688  0.72774148  1
  C  C341  1  0.94990464  0.28330840  0.57307374  1
  O  O342  1  0.83048645  0.29538731  0.86844685  1
  C  C343  1  0.76879817  0.29903976  0.65771353  1
  O  O344  1  0.90082266  0.34653124  0.68525654  1
  C  C345  1  0.99393967  0.29321110  0.64266287  1
  C  C346  1  0.86869624  0.46248821  0.57936330  1
  C  C347  1  0.88424519  0.42786990  0.96435424  1
  C  C348  1  0.93890121  0.35313392  0.99426312  1
  H  H349  1  0.96982274  0.47986139  0.98886023  1
  C  C350  1  0.62429470  0.68424696  0.31516053  1
  H  H351  1  0.62661330  0.64727884  0.26904851  1
  C  C352  1  0.60504917  0.69067377  0.43721213  1
  O  O353  1  0.58445681  0.60005324  0.44198381  1
  C  C354  1  0.65428637  0.55631742  0.22305038  1
  N  N355  1  0.65728458  0.72093264  0.13221839  1
  H  H356  1  0.68949429  0.57037322  0.26051824  1
  C  C357  1  0.63672441  0.73093750  0.25674086  1
  C  C358  1  0.55574628  0.52225850  0.14919580  1
  C  C359  1  0.62845547  0.57992368  0.12235451  1
  Cu  Cu360  1  0.70042067  0.66403255  0.09575189  1
  C  C361  1  0.58060365  0.56054064  0.08082189  1
  N  N362  1  0.64919891  0.61981610  0.04598037  1
  Cu  Cu363  1  0.53493287  0.55054243  0.46421145  1
  H  H364  1  0.52514132  0.61738552  0.31073249  1
  C  C365  1  0.62871504  0.51804812  0.29014165  1
  O  O366  1  0.72972472  0.66797732  0.31881810  1
  C  C367  1  0.60271374  0.73717186  0.49928382  1
  C  C368  1  0.58054835  0.50057134  0.25428656  1
  C  C369  1  0.74800158  0.62028411  0.48554687  1
  Cu  Cu370  1  0.61453132  0.68729920  0.00674810  1
  Cu  Cu371  1  0.89437446  0.51765870  0.11891337  1
  C  C372  1  0.94895704  0.69569783  0.41656886  1
  Cu  Cu373  1  0.84746925  0.72225609  0.35913472  1
  H  H374  1  0.78822299  0.55074361  0.47874488  1
  C  C375  1  0.97993465  0.58762498  0.15556394  1
  O  O376  1  0.78346790  0.60392166  0.27121286  1
  N  N377  1  0.81235846  0.58950319  0.05648659  1
  O  O378  1  0.96058647  0.54239668  0.11633998  1
  C  C379  1  0.79917838  0.62434312  0.14183631  1
  C  C380  1  0.75337014  0.63015812  0.34726364  1
  C  C381  1  0.81448394  0.69627705  0.01523278  1
  O  O382  1  0.96701993  0.73833158  0.38840841  1
  O  O383  1  0.90758362  0.67900478  0.36929109  1
  O  O384  1  0.97229439  0.62521625  0.09430133  1
  N  N385  1  0.79737306  0.67518282  0.12308097  1
  O  O386  1  0.65659089  0.54730541  0.88041542  1
  C  C387  1  0.69892633  0.69114877  0.77099599  1
  O  O388  1  0.68863805  0.68920842  0.88275282  1
  O  O389  1  0.67918749  0.72745767  0.70225028  1
  C  C390  1  0.72137932  0.65132267  0.69112574  1
  O  O391  1  0.57484562  0.64595846  0.61060820  1
  C  C392  1  0.72341256  0.65731074  0.56026996  1
  H  H393  1  0.65866193  0.60562479  0.95963322  1
  O  O394  1  0.64758833  0.52240431  0.67802125  1
  C  C395  1  0.64986760  0.51629474  0.80191241  1
  O  O396  1  0.51458675  0.65801477  0.96575029  1
  H  H397  1  0.70382429  0.69097031  0.51981644  1
  C  C398  1  0.74388291  0.60997269  0.75222441  1
  H  H399  1  0.74608719  0.60668703  0.85448655  1
  H  H400  1  0.59170617  0.73788807  0.60269009  1
  C  C401  1  0.53307023  0.66043627  0.87757291  1
  C  C402  1  0.58735249  0.64426763  0.50355265  1
  H  H403  1  0.56265399  0.57826735  0.99947874  1
  H  H404  1  0.92252251  0.59698465  0.50560909  1
  N  N405  1  0.79205152  0.53749844  0.74669844  1
  C  C406  1  0.92139006  0.51313456  0.64254472  1
  H  H407  1  0.79460133  0.54315839  0.84047084  1
  C  C408  1  0.98086139  0.58828476  0.64089486  1
  C  C409  1  0.82423349  0.62263653  0.97744321  1
  O  O410  1  0.85172205  0.73367814  0.53809098  1
  C  C411  1  0.95410390  0.61681137  0.55361156  1
  C  C412  1  0.97200576  0.66485942  0.51794072  1
  C  C413  1  0.77027661  0.57785522  0.67090716  1
  N  N414  1  0.88133322  0.53722839  0.69533795  1
  N  N415  1  0.97480513  0.53380023  0.64918545  1
  N  N416  1  0.83017933  0.66507305  0.92338531  1
  H  H417  1  0.83744007  0.72059307  0.76812739  1
  C  C418  1  0.77243410  0.57908312  0.53955550  1
  C  C419  1  0.83706745  0.51354205  0.67579057  1
  H  H420  1  0.63987676  0.81500639  0.25492834  1
  O  O421  1  0.62610413  0.87561509  0.42928338  1
  N  N422  1  0.63891264  0.96812027  0.44254876  1
  C  C423  1  0.63062784  0.77985122  0.30430144  1
  C  C424  1  0.61576114  0.78064519  0.42955561  1
  O  O425  1  0.68916268  0.95506116  0.08142917  1
  H  H426  1  0.51506539  0.81546933  0.08565856  1
  H  H427  1  0.64205850  0.99392229  0.25673127  1
  C  C428  1  0.52534300  0.84628947  0.02172219  1
  C  C429  1  0.61452304  0.83354041  0.48800881  1
  C  C430  1  0.69978675  0.99807943  0.05876538  1
  H  H431  1  0.66694810  0.75364057  0.09491964  1
  H  H432  1  0.81952449  0.85153957  0.01331511  1
  Cu  Cu433  1  0.96249286  0.80297476  0.46906353  1
  O  O434  1  0.80518868  0.82908434  0.18679600  1
  C  C435  1  0.78293643  0.94869886  0.40338559  1
  C  C436  1  0.79409654  0.90750585  0.32501843  1
  C  C437  1  0.79627200  0.81428340  0.29128283  1
  O  O438  1  0.79433185  0.76822634  0.33350818  1
  H  H439  1  0.81080478  0.91682669  0.23427470  1
  H  H440  1  0.80215978  0.77155060  0.10392841  1
  C  C441  1  0.78332630  0.85894514  0.37316537  1
  C  C442  1  0.99438914  0.90447749  0.49731762  1
  N  N443  1  0.80577392  0.75328026  0.01519749  1
  C  C444  1  0.76574341  0.84881841  0.49243357  1
  O  O445  1  0.95400870  0.91911047  0.46149158  1
  C  C446  1  0.56973544  0.84572572  0.95216338  1
  C  C447  1  0.58667879  0.88706531  0.87749220  1
  H  H448  1  0.62257674  0.88424169  0.83406250  1
  C  C449  1  0.59597436  0.96640265  0.68177544  1
  O  O450  1  0.72647661  0.83956153  0.74152770  1
  Cu  Cu451  1  0.66988753  0.79597095  0.74061848  1
  N  N452  1  0.60599877  0.92249540  0.62807269  1
  C  C453  1  0.60197523  0.79908180  0.94981897  1
  N  N454  1  0.57151795  0.97564369  0.80445014  1
  O  O455  1  0.60485682  0.83240876  0.59826660  1
  C  C456  1  0.55654026  0.93037512  0.87471023  1
  O  O457  1  0.64733625  0.80402435  0.91142217  1
  O  O458  1  0.72092932  0.92247089  0.75418392  1
  C  C459  1  0.73456174  0.88266803  0.69700914  1
  C  C460  1  0.62355168  0.93152708  0.51398072  1
  O  O461  1  0.58463743  0.75662119  0.98180128  1
  C  C462  1  0.51127828  0.93155844  0.94226572  1
  O  O463  1  0.88827049  0.94910752  0.80242592  1
  H  H464  1  0.75945724  0.97468133  0.58988358  1
  C  C465  1  0.87321628  0.84635678  0.72868822  1
  H  H466  1  0.75985661  0.80807672  0.52420840  1
  C  C467  1  0.85675193  0.92476388  0.85879890  1
  Cu  Cu468  1  0.75808300  0.95050314  0.88238960  1
  C  C469  1  0.75810547  0.89165521  0.57072885  1
  C  C470  1  0.76470562  0.94102609  0.52978896  1
  O  O471  1  0.82251093  0.94739837  0.93399494  1
  C  C472  1  0.85479437  0.86603171  0.83977537  1
  C  C473  1  0.86874791  0.77517738  0.58514479  1
  C  C474  1  0.82895087  0.78131141  0.91523370  1
  H  H475  1  0.89226024  0.86856669  0.65631045  1
  C  C476  1  0.86078261  0.79398700  0.70992551  1
  C  C477  1  0.84302026  0.75967030  0.79907241  1
  C  C478  1  0.83344259  0.83464107  0.92794304  1
  O  O479  1  0.89047908  0.80681116  0.51340301  1
