# generated using pymatgen
data_CuH4C9(NO2)2
_symmetry_space_group_name_H-M   'P 1'
_cell_length_a   22.84720530
_cell_length_b   19.44178289
_cell_length_c   17.61259212
_cell_angle_alpha   90.00000000
_cell_angle_beta   90.00000000
_cell_angle_gamma   90.00000000
_symmetry_Int_Tables_number   1
_chemical_formula_structural   CuH4C9(NO2)2
_chemical_formula_sum   'Cu24 H96 C216 N48 O96'
_cell_volume   7823.34442724
_cell_formula_units_Z   24
loop_
 _symmetry_equiv_pos_site_id
 _symmetry_equiv_pos_as_xyz
  1  'x, y, z'
loop_
 _atom_site_type_symbol
 _atom_site_label
 _atom_site_symmetry_multiplicity
 _atom_site_fract_x
 _atom_site_fract_y
 _atom_site_fract_z
 _atom_site_occupancy
  C  C0  1  0.20391068  0.10575017  0.39046178  1
  C  C1  1  0.17120589  0.02857671  0.49049627  1
  C  C2  1  0.13501440  0.41903261  0.34953530  1
  Cu  Cu3  1  0.11501699  0.04539284  0.12906828  1
  C  C4  1  0.07126178  0.30562186  0.05569509  1
  C  C5  1  0.07050386  0.43011891  0.07362569  1
  O  O6  1  0.08651004  0.11980148  0.34486418  1
  O  O7  1  0.09038569  0.38208656  0.36470092  1
  C  C8  1  0.09999242  0.07388153  0.39310769  1
  Cu  Cu9  1  0.00766487  0.08200065  0.49384249  1
  O  O10  1  0.13926388  0.45032777  0.28832786  1
  O  O11  1  0.02561109  0.29461650  0.08170242  1
  O  O12  1  0.06207004  0.04123308  0.42961042  1
  C  C13  1  0.17180033  0.43642343  0.41312495  1
  C  C14  1  0.21066412  0.49158068  0.39980406  1
  O  O15  1  0.18809933  0.06622401  0.10902747  1
  O  O16  1  0.10844063  0.24336717  0.01737360  1
  H  H17  1  0.13648839  0.36386371  0.49367774  1
  C  C18  1  0.10031228  0.37154700  0.04510346  1
  H  H19  1  0.19554945  0.13737116  0.33904611  1
  N  N20  1  0.08184997  0.12301205  0.05931156  1
  C  C21  1  0.15813475  0.06990928  0.42777271  1
  H  H22  1  0.03506593  0.12304231  0.06133589  1
  Cu  Cu23  1  0.02064025  0.41712314  0.33588746  1
  H  H24  1  0.02431149  0.42225820  0.08536987  1
  C  C25  1  0.21373570  0.11802069  0.15050260  1
  C  C26  1  0.09532155  0.18232965  0.03812365  1
  C  C27  1  0.10152022  0.49123131  0.07733538  1
  O  O28  1  0.04436139  0.02597538  0.15860211  1
  O  O29  1  0.20222516  0.12150951  0.21558783  1
  C  C30  1  0.15624530  0.49589250  0.04034337  1
  C  C31  1  0.16422821  0.40984914  0.48663247  1
  C  C32  1  0.15220478  0.37719415  0.00225079  1
  Cu  Cu33  1  0.01703436  0.12618159  0.29662520  1
  C  C34  1  0.09148592  0.09787973  0.70065913  1
  N  N35  1  0.15068509  0.46738265  0.74023192  1
  C  C36  1  0.19839605  0.43954343  0.54226205  1
  C  C37  1  0.12871547  0.19898736  0.75814249  1
  H  H38  1  0.12842779  0.09060046  0.95241520  1
  C  C39  1  0.10337834  0.16878523  0.69486485  1
  H  H40  1  0.17146200  0.33293994  0.97419495  1
  H  H41  1  0.09403055  0.20110863  0.64378921  1
  N  N42  1  0.03699938  0.01064815  0.89233508  1
  C  C43  1  0.12690453  0.09815685  0.82794128  1
  O  O44  1  0.15447264  0.31126246  0.81131069  1
  N  N45  1  0.17954327  0.42071266  0.62103711  1
  H  H46  1  0.15008591  0.37829372  0.63494180  1
  N  N47  1  0.13201746  0.06590739  0.90049302  1
  H  H48  1  0.15372418  0.19619013  0.87991482  1
  C  C49  1  0.14119670  0.16807508  0.82801121  1
  C  C50  1  0.13816617  0.27415052  0.75150758  1
  O  O51  1  0.05352206  0.00764955  0.62869078  1
  C  C52  1  0.10676225  0.06103152  0.76562988  1
  C  C53  1  0.22714798  0.45620715  0.94949762  1
  O  O54  1  0.05955715  0.10409663  0.56825498  1
  O  O55  1  0.13510692  0.30106572  0.69071436  1
  Cu  Cu56  1  0.21299744  0.37650884  0.81299816  1
  C  C57  1  0.06749705  0.06609481  0.62931633  1
  H  H58  1  0.10063313  0.00721699  0.77250672  1
  H  H59  1  0.23454295  0.12045750  0.99951276  1
  C  C60  1  0.18038012  0.47577138  0.67524748  1
  C  C61  1  0.24049673  0.48921380  0.53037064  1
  O  O62  1  0.24838707  0.41224857  0.90698815  1
  H  H63  1  0.05389280  0.49412707  0.73471381  1
  C  C64  1  0.09400861  0.00155164  0.89395248  1
  C  C65  1  0.23025806  0.01783363  0.50793277  1
  C  C66  1  0.18005378  0.44150185  0.99947748  1
  H  H67  1  0.23893966  0.77463428  0.12851539  1
  N  N68  1  0.07386531  0.55289010  0.10320828  1
  O  O69  1  0.00707796  0.55124861  0.24044480  1
  N  N70  1  0.17580225  0.81412156  0.01220974  1
  C  C71  1  0.11061258  0.60969813  0.13914034  1
  H  H72  1  0.20467592  0.77000571  0.43592178  1
  C  C73  1  0.22546486  0.85088316  0.03714734  1
  N  N74  1  0.22567310  0.62600631  0.27492844  1
  N  N75  1  0.09182840  0.67078646  0.12173985  1
  C  C76  1  0.11772522  0.71525614  0.16975129  1
  H  H77  1  0.17669133  0.54507633  0.04137393  1
  H  H78  1  0.00850531  0.72534072  0.06846529  1
  C  C79  1  0.18010826  0.63858174  0.22973032  1
  H  H80  1  0.12750566  0.82035522  0.19633824  1
  O  O81  1  0.09781947  0.70932625  0.41853355  1
  C  C82  1  0.04930913  0.88338354  0.14247582  1
  H  H83  1  0.07769242  0.90522166  0.18566674  1
  C  C84  1  0.05035646  0.81063720  0.12916824  1
  N  N85  1  0.15229344  0.59116538  0.18607610  1
  C  C86  1  0.21520600  0.73964991  0.48797561  1
  H  H87  1  0.02882478  0.55651065  0.10420332  1
  N  N88  1  0.10247220  0.78770499  0.16492286  1
  N  N89  1  0.16056670  0.70423237  0.22112642  1
  H  H90  1  0.06794592  0.86050951  0.48606708  1
  H  H91  1  0.15661042  0.78674792  0.05512538  1
  H  H92  1  0.24082136  0.57664073  0.27300605  1
  C  C93  1  0.24618433  0.51618814  0.45689638  1
  C  C94  1  0.00814731  0.99721531  0.11076562  1
  C  C95  1  0.00626547  0.91962103  0.10313247  1
  C  C96  1  0.00785012  0.77913521  0.08284682  1
  C  C97  1  0.10684060  0.70599126  0.48589654  1
  H  H98  1  0.21364644  0.51177150  0.34045770  1
  Cu  Cu99  1  0.07586031  0.50557833  0.25962163  1
  C  C100  1  0.24093333  0.91333532  0.00125157  1
  C  C101  1  0.02324055  0.53140525  0.92175962  1
  H  H102  1  0.21656040  0.93505263  0.94958717  1
  C  C103  1  0.20430323  0.91882581  0.59150877  1
  N  N104  1  0.22038998  0.89485803  0.65967528  1
  N  N105  1  0.17878857  0.58246782  0.78208469  1
  N  N106  1  0.15959757  0.90221004  0.54610154  1
  Cu  Cu107  1  0.01614213  0.76942182  0.57727491  1
  H  H108  1  0.14088592  0.64808747  0.62525443  1
  C  C109  1  0.20583285  0.58343081  0.71615276  1
  C  C110  1  0.05438019  0.51426848  0.85532218  1
  H  H111  1  0.04547390  0.54432493  0.97714728  1
  N  N112  1  0.20597251  0.53631381  0.66088042  1
  H  H113  1  0.13549693  0.52937030  0.90605840  1
  N  N114  1  0.11739803  0.50910721  0.85931534  1
  N  N115  1  0.18705389  0.81245750  0.75327904  1
  H  H116  1  0.15894011  0.76991860  0.75766004  1
  C  C117  1  0.18004119  0.85190059  0.68341101  1
  N  N118  1  0.24012753  0.64791288  0.69849769  1
  C  C119  1  0.03851241  0.70593747  0.72740671  1
  O  O120  1  0.08568102  0.71013840  0.75619360  1
  C  C121  1  0.17592212  0.67570389  0.59422331  1
  C  C122  1  0.07887691  0.90557139  0.87611195  1
  N  N123  1  0.02577332  0.89061785  0.86884683  1
  C  C124  1  0.24198451  0.81835077  0.79407013  1
  N  N125  1  0.13079085  0.83236702  0.64541639  1
  C  C126  1  0.12051666  0.85911678  0.57516159  1
  N  N127  1  0.07326061  0.84082457  0.53728085  1
  H  H128  1  0.22808334  0.72427595  0.85492263  1
  C  C129  1  0.14885487  0.52440882  0.78471624  1
  C  C130  1  0.23325835  0.67983209  0.62657425  1
  N  N131  1  0.12361029  0.94258825  0.88962129  1
  H  H132  1  0.14520815  0.84444402  0.99028174  1
  C  C133  1  0.16872978  0.70669319  0.52514333  1
  O  O134  1  0.06141448  0.70093323  0.53209320  1
  C  C135  1  0.02764804  0.50659262  0.78421935  1
  N  N136  1  0.24892628  0.96890817  0.56588398  1
  C  C137  1  0.00435884  0.95428648  0.87634514  1
  H  H138  1  0.13880790  0.99532342  0.51691665  1
  O  O139  1  0.36503913  0.11969181  0.39432561  1
  H  H140  1  0.32195330  0.04218365  0.48267133  1
  C  C141  1  0.26027956  0.09638115  0.41293740  1
  H  H142  1  0.26826855  0.22727728  0.21068777  1
  C  C143  1  0.30868982  0.26891638  0.02450172  1
  O  O144  1  0.29967967  0.18207449  0.33650723  1
  Cu  Cu145  1  0.40940300  0.04817295  0.36401931  1
  C  C146  1  0.31204414  0.13443567  0.37334963  1
  C  C147  1  0.27617221  0.05523037  0.47201770  1
  H  H148  1  0.32881583  0.31821254  0.12536417  1
  C  C149  1  0.30698916  0.27203549  0.10203489  1
  C  C150  1  0.27558306  0.22585103  0.14790177  1
  O  O151  1  0.44699024  0.47151744  0.03693383  1
  H  H152  1  0.48185146  0.06822780  0.06792604  1
  C  C153  1  0.25328416  0.16346371  0.03060574  1
  C  C154  1  0.25079553  0.17119208  0.10971571  1
  C  C155  1  0.45939559  0.01255142  0.63296899  1
  C  C156  1  0.43281567  0.16942937  0.90283270  1
  O  O157  1  0.39764304  0.16946314  0.84695457  1
  Cu  Cu158  1  0.29751289  0.07701329  0.83549421  1
  H  H159  1  0.33484758  0.30685552  0.98752473  1
  Cu  Cu160  1  0.36415516  0.24103280  0.79313481  1
  C  C161  1  0.27846592  0.21491157  0.98886908  1
  O  O162  1  0.28026967  0.02779562  0.93047702  1
  C  C163  1  0.46827097  0.41516199  0.63802512  1
  H  H164  1  0.42279194  0.32584146  0.67755798  1
  C  C165  1  0.36750509  0.40788525  0.69348714  1
  C  C166  1  0.32184310  0.36626525  0.73179781  1
  C  C167  1  0.41920074  0.37978034  0.66945568  1
  C  C168  1  0.46578096  0.17226725  0.95715834  1
  O  O169  1  0.25847843  0.15741712  0.86890224  1
  O  O170  1  0.28473950  0.39824674  0.76981279  1
  O  O171  1  0.32482016  0.30154309  0.72991224  1
  O  O172  1  0.30607913  0.25471482  0.87032050  1
  C  C173  1  0.28290295  0.20555531  0.90586947  1
  H  H174  1  0.39933661  0.09654652  0.63782977  1
  O  O175  1  0.33641529  0.00382910  0.79205538  1
  C  C176  1  0.44314764  0.07780846  0.65443202  1
  O  O177  1  0.41096054  0.21413677  0.70753867  1
  Cu  Cu178  1  0.42447791  0.03996767  0.92396315  1
  C  C179  1  0.48205197  0.12141460  0.69334091  1
  C  C180  1  0.36152578  0.48077461  0.69325103  1
  C  C181  1  0.31169733  0.00744598  0.98374714  1
  O  O182  1  0.36044801  0.03837335  0.99340278  1
  C  C183  1  0.46398131  0.19402967  0.71592363  1
  C  C184  1  0.46022483  0.48679857  0.63264740  1
  O  O185  1  0.32261733  0.58757624  0.49644965  1
  C  C186  1  0.30445585  0.85638706  0.11981804  1
  O  O187  1  0.38557540  0.86104661  0.19862282  1
  O  O188  1  0.29920967  0.59192043  0.37523713  1
  C  C189  1  0.29240020  0.94390165  0.02332942  1
  C  C190  1  0.28528970  0.64692356  0.03607322  1
  Cu  Cu191  1  0.26642897  0.67381886  0.35120275  1
  C  C192  1  0.45925311  0.71178996  0.38755468  1
  C  C193  1  0.43847214  0.53152687  0.03181398  1
  C  C194  1  0.32478331  0.91460147  0.08281128  1
  C  C195  1  0.46323825  0.57852843  0.09251502  1
  Cu  Cu196  1  0.35385768  0.75241932  0.31861659  1
  H  H197  1  0.36592279  0.94142768  0.09932085  1
  C  C198  1  0.29153387  0.56770226  0.44155527  1
  H  H199  1  0.44533485  0.83830804  0.33562276  1
  C  C200  1  0.46016247  0.64930614  0.08952306  1
  C  C201  1  0.32327287  0.76079287  0.47603118  1
  O  O202  1  0.31652070  0.78263574  0.40613191  1
  C  C203  1  0.47793879  0.83508233  0.38199667  1
  H  H204  1  0.43724751  0.67361669  0.04176664  1
  C  C205  1  0.48797109  0.77296614  0.42088176  1
  H  H206  1  0.47277317  0.77710231  0.07525385  1
  O  O207  1  0.43234825  0.72052180  0.32523531  1
  O  O208  1  0.45335439  0.97085610  0.34331844  1
  C  C209  1  0.34206349  0.82964904  0.18382737  1
  O  O210  1  0.45527315  0.65533448  0.42093509  1
  O  O211  1  0.32530591  0.77737378  0.22427259  1
  N  N212  1  0.49701591  0.75917513  0.12313378  1
  C  C213  1  0.31785455  0.64512638  0.10416749  1
  C  C214  1  0.28248630  0.60025412  0.09698114  1
  Cu  Cu215  1  0.39392225  0.62477596  0.48962160  1
  C  C216  1  0.25637247  0.81922856  0.09647018  1
  C  C217  1  0.48791403  0.69062610  0.14527286  1
  C  C218  1  0.49676050  0.54936902  0.15249374  1
  C  C219  1  0.49931705  0.96141107  0.37747541  1
  O  O220  1  0.35518939  0.75047230  0.00341072  1
  C  C221  1  0.32178375  0.89255756  0.84293994  1
  H  H222  1  0.37622428  0.85562378  0.93648545  1
  O  O223  1  0.36478341  0.97593509  0.59804736  1
  C  C224  1  0.27291594  0.73914654  0.51797828  1
  O  O225  1  0.27367060  0.67721863  0.97091886  1
  O  O226  1  0.40334159  0.81285135  0.73183344  1
  O  O227  1  0.49471671  0.77661410  0.97835413  1
  H  H228  1  0.45969115  0.80036150  0.85285762  1
  Cu  Cu229  1  0.32803872  0.53919950  0.96575888  1
  C  C230  1  0.33778401  0.84555180  0.89843543  1
  O  O231  1  0.44162988  0.91719431  0.55488078  1
  Cu  Cu232  1  0.41740218  0.82862289  0.54083284  1
  C  C233  1  0.39155873  0.58965722  0.64021198  1
  O  O234  1  0.45308201  0.78674462  0.62633822  1
  H  H235  1  0.27177753  0.50657563  0.57707927  1
  H  H236  1  0.25844127  0.91615088  0.74999756  1
  C  C237  1  0.41719563  0.96538393  0.59414560  1
  C  C238  1  0.49832861  0.78116298  0.82321361  1
  H  H239  1  0.32439106  0.70984228  0.61612174  1
  O  O240  1  0.34801633  0.61813587  0.66608642  1
  C  C241  1  0.28101922  0.71029689  0.58948227  1
  C  C242  1  0.44754459  0.79771161  0.70042859  1
  C  C243  1  0.30278742  0.78704278  0.90128596  1
  O  O244  1  0.42318516  0.61880978  0.58746747  1
  C  C245  1  0.35508717  0.95545926  0.83395077  1
  H  H246  1  0.48934228  0.51787190  0.59811318  1
  C  C247  1  0.31666778  0.74002941  0.96200834  1
  O  O248  1  0.40281198  0.95985739  0.86975940  1
  C  C249  1  0.27499488  0.88035329  0.79311985  1
  C  C250  1  0.40545628  0.51529425  0.65601083  1
  H  H251  1  0.28224253  0.64399386  0.71908158  1
  H  H252  1  0.29200658  0.97165939  0.58554479  1
  H  H253  1  0.32198409  0.50281022  0.71895208  1
  C  C254  1  0.25557089  0.77069112  0.84927795  1
  O  O255  1  0.25232983  0.51548542  0.95559718  1
  O  O256  1  0.40843507  0.55994582  0.97550028  1
  O  O257  1  0.37372420  0.75686570  0.50454588  1
  N  N258  1  0.59304221  0.12185539  0.33337530  1
  C  C259  1  0.64377375  0.14803202  0.36118987  1
  H  H260  1  0.72947916  0.40618098  0.36417056  1
  O  O261  1  0.60482548  0.03423891  0.21012785  1
  O  O262  1  0.67116764  0.14085650  0.42310586  1
  H  H263  1  0.66918246  0.18227115  0.32051084  1
  C  C264  1  0.51217857  0.11372294  0.06974109  1
  C  C265  1  0.59671895  0.16671644  0.13263084  1
  O  O266  1  0.63045664  0.21127152  0.14443484  1
  C  C267  1  0.55884200  0.10964018  0.12213910  1
  H  H268  1  0.58869631  0.14663740  0.28080634  1
  O  O269  1  0.67316228  0.44435213  0.43383351  1
  Cu  Cu270  1  0.58570888  0.01889372  0.30576093  1
  C  C271  1  0.56446761  0.04448570  0.16509942  1
  Cu  Cu272  1  0.51372053  0.10490606  0.37013229  1
  C  C273  1  0.72352536  0.18770426  0.43807257  1
  H  H274  1  0.72468907  0.34191775  0.30111941  1
  C  C275  1  0.62998414  0.44434752  0.47005079  1
  O  O276  1  0.74274100  0.22309805  0.39017215  1
  H  H277  1  0.50465256  0.49338156  0.15254698  1
  H  H278  1  0.53842961  0.21581858  0.02667048  1
  C  C279  1  0.50389348  0.17007435  0.02049204  1
  O  O280  1  0.55015451  0.49046164  0.27355813  1
  O  O281  1  0.53690501  0.00993521  0.38850324  1
  O  O282  1  0.50024202  0.23063883  0.74263956  1
  O  O283  1  0.59968077  0.04891047  0.85943965  1
  C  C284  1  0.55704446  0.03452829  0.68493509  1
  H  H285  1  0.56817609  0.14252439  0.73398738  1
  C  C286  1  0.53872157  0.10162943  0.71072710  1
  N  N287  1  0.72665774  0.09982903  0.70367222  1
  C  C288  1  0.55010739  0.04865495  0.89004417  1
  H  H289  1  0.68740919  0.11108302  0.55797129  1
  H  H290  1  0.64024351  0.06785070  0.69739928  1
  C  C291  1  0.72423848  0.14473326  0.57289303  1
  N  N292  1  0.72234846  0.06487428  0.83328073  1
  H  H293  1  0.72009722  0.05160649  0.68036040  1
  C  C294  1  0.74507644  0.19130270  0.51745579  1
  H  H295  1  0.54664080  0.08220322  0.94279838  1
  N  N296  1  0.50086754  0.02284653  0.87372830  1
  O  O297  1  0.58674684  0.44787738  0.50380103  1
  N  N298  1  0.61946387  0.02269003  0.69043820  1
  C  C299  1  0.74518877  0.08077069  0.89702913  1
  H  H300  1  0.50688558  0.38960042  0.61249082  1
  N  N301  1  0.68728838  0.00328461  0.58807907  1
  H  H302  1  0.70634061  0.93337301  0.35302639  1
  C  C303  1  0.52387200  0.81479041  0.17483337  1
  O  O304  1  0.61457230  0.92678941  0.02606443  1
  N  N305  1  0.57133996  0.91980514  0.25621503  1
  H  H306  1  0.59282871  0.79904866  0.37289064  1
  C  C307  1  0.54774082  0.88741085  0.47215818  1
  H  H308  1  0.57070031  0.72589806  0.03975026  1
  O  O309  1  0.71341938  0.92182385  0.20462420  1
  N  N310  1  0.61470714  0.83081680  0.33793780  1
  C  C311  1  0.53984789  0.92118347  0.19324521  1
  Cu  Cu312  1  0.63976429  0.56069018  0.38107538  1
  C  C313  1  0.73574238  0.74741403  0.22505613  1
  C  C314  1  0.67862128  0.76945489  0.25006405  1
  N  N315  1  0.65520514  0.61783849  0.48103248  1
  C  C316  1  0.67094836  0.79664034  0.32336491  1
  H  H317  1  0.66580814  0.55169830  0.23454235  1
  C  C318  1  0.52604590  0.76450354  0.48160270  1
  N  N319  1  0.55643509  0.79787759  0.23413900  1
  C  C320  1  0.57823792  0.85288258  0.27068895  1
  O  O321  1  0.66319589  0.83514321  0.10950485  1
  O  O322  1  0.57393867  0.58904965  0.32614201  1
  H  H323  1  0.71122809  0.80566264  0.43873274  1
  H  H324  1  0.63980434  0.76519456  0.21432550  1
  C  C325  1  0.51885874  0.59006179  0.21010875  1
  C  C326  1  0.71286612  0.74627558  0.02845936  1
  O  O327  1  0.74152427  0.70523374  0.08237922  1
  C  C328  1  0.71759165  0.79205022  0.37684404  1
  C  C329  1  0.67937833  0.80602359  0.04743810  1
  C  C330  1  0.55088512  0.55212866  0.27009799  1
  N  N331  1  0.51650471  0.87770085  0.14854788  1
  Cu  Cu332  1  0.66270969  0.92534756  0.11990814  1
  H  H333  1  0.53228630  0.68905421  0.25818485  1
  C  C334  1  0.51132194  0.66012846  0.21071503  1
  N  N335  1  0.68341827  0.55955323  0.28536462  1
  O  O336  1  0.52654525  0.99662873  0.15127276  1
  H  H337  1  0.57212664  0.93629974  0.48540106  1
  C  C338  1  0.73666695  0.58081893  0.28028932  1
  C  C339  1  0.51025600  0.89120376  0.41077709  1
  C  C340  1  0.74266678  0.71995612  0.14852714  1
  N  N341  1  0.74843598  0.99728689  0.48815665  1
  C  C342  1  0.59492026  0.72785786  0.83013405  1
  H  H343  1  0.53201417  0.94169192  0.62557623  1
  N  N344  1  0.61619832  0.91798339  0.61754458  1
  O  O345  1  0.71221605  0.85929362  0.73783191  1
  N  N346  1  0.59902190  0.67443142  0.58853055  1
  C  C347  1  0.68689303  0.79772261  0.91209943  1
  C  C348  1  0.64382624  0.88893199  0.55956773  1
  C  C349  1  0.63186391  0.89857247  0.96738649  1
  O  O350  1  0.72438367  0.92632396  0.83836056  1
  H  H351  1  0.63220182  0.70561507  0.86229614  1
  H  H352  1  0.68714091  0.70521538  0.74279335  1
  C  C353  1  0.64476180  0.68118495  0.63289234  1
  C  C354  1  0.54358134  0.75200609  0.86422964  1
  N  N355  1  0.64997418  0.71172219  0.70951491  1
  C  C356  1  0.59673272  0.72627390  0.74896898  1
  O  O357  1  0.58081376  0.71898277  0.98623741  1
  C  C358  1  0.61906670  0.64462872  0.52869692  1
  N  N359  1  0.69726940  0.66445318  0.59849540  1
  C  C360  1  0.64284708  0.97833078  0.62831511  1
  O  O361  1  0.72943362  0.67917489  0.83304184  1
  C  C362  1  0.71339465  0.74170607  0.94783081  1
  H  H363  1  0.68502906  0.80487512  0.85097127  1
  H  H364  1  0.55136640  0.75069301  0.64364762  1
  Cu  Cu365  1  0.66192054  0.98323319  0.85194685  1
  O  O366  1  0.61797805  0.91632059  0.89886070  1
  C  C367  1  0.70803602  0.96600514  0.52777325  1
  C  C368  1  0.53751182  0.75330362  0.94835844  1
  C  C369  1  0.55087711  0.75411941  0.70556442  1
  C  C370  1  0.74272148  0.89274616  0.77624705  1
  H  H371  1  0.62327999  0.78391104  0.57898621  1
  C  C372  1  0.66440884  0.83629196  0.97196272  1
  C  C373  1  0.69685399  0.63643463  0.53016270  1
  C  C374  1  0.50086491  0.77587311  0.74369455  1
  C  C375  1  0.51727441  0.99184401  0.64755786  1
  N  N376  1  0.61513648  0.81916853  0.53913105  1
  N  N377  1  0.68732040  0.90300196  0.51261652  1
  C  C378  1  0.74024819  0.68401586  0.89854017  1
  H  H379  1  0.50127690  0.99647937  0.82677864  1
  H  H380  1  0.53339119  0.71246404  0.50659454  1
  C  C381  1  0.55978767  0.82263149  0.50485648  1
  H  H382  1  0.80609682  0.25680230  0.27788878  1
  O  O383  1  0.95660706  0.47039902  0.29598131  1
  C  C384  1  0.84161595  0.38871398  0.40136541  1
  O  O385  1  0.93693940  0.06938681  0.43803547  1
  O  O386  1  0.88548764  0.18237134  0.25767401  1
  C  C387  1  0.93986730  0.42452546  0.45314030  1
  C  C388  1  0.90193590  0.37942796  0.40738105  1
  O  O389  1  0.97859307  0.03291768  0.07079578  1
  C  C390  1  0.89268089  0.27803921  0.33109865  1
  C  C391  1  0.91940867  0.21998714  0.28983315  1
  C  C392  1  0.83305644  0.28958738  0.31747621  1
  C  C393  1  0.80590101  0.34639984  0.35365496  1
  H  H394  1  0.82545552  0.43562218  0.42796926  1
  C  C395  1  0.92841622  0.32136844  0.37502931  1
  O  O396  1  0.97748562  0.20765637  0.29598931  1
  H  H397  1  0.97601976  0.31330307  0.37786434  1
  N  N398  1  0.75167533  0.37162019  0.33191554  1
  O  O399  1  0.95732390  0.05965360  0.31348018  1
  C  C400  1  0.92323007  0.04931493  0.37012106  1
  C  C401  1  0.86508952  0.01942859  0.36069264  1
  H  H402  1  0.81080381  0.26871591  0.48745984  1
  C  C403  1  0.83144922  0.02072121  0.42689841  1
  H  H404  1  0.84746579  0.03402175  0.48542052  1
  O  O405  1  0.99417883  0.42027368  0.44104219  1
  H  H406  1  0.81908249  0.18963702  0.71847481  1
  N  N407  1  0.78197658  0.11452149  0.93720888  1
  C  C408  1  0.86000239  0.28631912  0.62170873  1
  O  O409  1  0.86242657  0.34138329  0.57404025  1
  Cu  Cu410  1  0.90718244  0.41384873  0.60428156  1
  C  C411  1  0.81540297  0.23270989  0.60391454  1
  O  O412  1  0.88728941  0.28650278  0.67793915  1
  N  N413  1  0.79383780  0.15178935  0.80237653  1
  O  O414  1  0.94822960  0.48177185  0.65016573  1
  C  C415  1  0.79144792  0.23687103  0.53093946  1
  C  C416  1  0.79824497  0.18795026  0.66113590  1
  C  C417  1  0.79494219  0.14293300  0.87277617  1
  O  O418  1  0.91507922  0.45596848  0.50325735  1
  C  C419  1  0.75033254  0.10773757  0.78076953  1
  C  C420  1  0.75049662  0.14507280  0.64494257  1
  C  C421  1  0.82196131  0.59525412  0.38471485  1
  O  O422  1  0.81100350  0.78098590  0.48204001  1
  C  C423  1  0.77336352  0.77600161  0.35223106  1
  C  C424  1  0.96660773  0.82110381  0.04785424  1
  C  C425  1  0.76704504  0.59656118  0.35105172  1
  C  C426  1  0.75280813  0.95759509  0.35406681  1
  H  H427  1  0.90537408  0.68838063  0.29232517  1
  C  C428  1  0.82149189  0.77719505  0.40903688  1
  H  H429  1  0.91263899  0.57242800  0.42232327  1
  C  C430  1  0.77433117  0.60346860  0.43419226  1
  C  C431  1  0.88728352  0.58911626  0.37073663  1
  C  C432  1  0.78787917  0.96613583  0.29000805  1
  C  C433  1  0.78411610  0.75309690  0.28002807  1
  O  O434  1  0.95814987  0.56790067  0.04765457  1
  H  H435  1  0.75574849  0.57735269  0.22265177  1
  H  H436  1  0.82704888  0.74125151  0.25585562  1
  C  C437  1  0.91522885  0.58244778  0.28956282  1
  C  C438  1  0.96374203  0.89184213  0.05482586  1
  O  O439  1  0.87013968  0.77815016  0.38412800  1
  H  H440  1  0.93123893  0.92636836  0.02450560  1
  O  O441  1  0.80029223  0.94857807  0.15964198  1
  C  C442  1  0.92141281  0.63934994  0.31543979  1
  C  C443  1  0.84285841  0.99768513  0.29001419  1
  C  C444  1  0.76649190  0.94326593  0.21299487  1
  C  C445  1  0.77500587  0.99025661  0.41847523  1
  H  H446  1  0.87094466  0.99800568  0.24097448  1
  C  C447  1  0.96009327  0.52867109  0.26825417  1
  C  C448  1  0.91653827  0.78756888  0.00135286  1
  O  O449  1  0.97798995  0.85029706  0.61746448  1
  H  H450  1  0.80805913  0.86297847  0.65153407  1
  C  C451  1  0.93045696  0.50895603  0.71252148  1
  C  C452  1  0.90729347  0.93265516  0.81261671  1
  C  C453  1  0.93247541  0.70485421  0.66922600  1
  C  C454  1  0.92136908  0.85411853  0.61753761  1
  C  C455  1  0.84509779  0.92956209  0.82237690  1
  C  C456  1  0.93337229  0.90753879  0.74479643  1
  C  C457  1  0.96803840  0.51857720  0.78036642  1
  C  C458  1  0.83646783  0.88171533  0.69780408  1
  O  O459  1  0.89036918  0.82776728  0.56790381  1
  O  O460  1  0.77578783  0.64259883  0.93281147  1
  N  N461  1  0.93943069  0.96817665  0.86869451  1
  Cu  Cu462  1  0.85096320  0.74024370  0.56054723  1
  H  H463  1  0.88923688  0.54668334  0.84293700  1
  C  C464  1  0.89701849  0.88224892  0.68745583  1
  O  O465  1  0.87955548  0.70194260  0.64474822  1
  C  C466  1  0.80983038  0.90060886  0.76538502  1
  O  O467  1  0.76080630  0.61331623  0.50305927  1
  O  O468  1  0.88063994  0.58845073  0.97577097  1
  C  C469  1  0.96418193  0.54425060  0.91627941  1
  C  C470  1  0.93743359  0.54100493  0.84568496  1
  H  H471  1  0.98217372  0.90564522  0.73787982  1
  H  H472  1  0.82637407  0.95531165  0.87359664  1
  C  C473  1  0.98278425  0.70163098  0.69144428  1
  Cu  Cu474  1  0.84959158  0.67864321  0.95616058  1
  O  O475  1  0.87972900  0.82527808  0.97623721  1
  C  C476  1  0.93388651  0.56700308  0.98769245  1
  O  O477  1  0.87956728  0.52603238  0.71973379  1
  H  H478  1  0.91809737  0.98391708  0.91644631  1
  O  O479  1  0.92055169  0.72347424  0.98729911  1
