# generated using pymatgen
data_CuH2(C3O2)2
_symmetry_space_group_name_H-M   'P 1'
_cell_length_a   15.16341732
_cell_length_b   15.98561665
_cell_length_c   9.73588167
_cell_angle_alpha   90.00000000
_cell_angle_beta   90.00000000
_cell_angle_gamma   90.00000000
_symmetry_Int_Tables_number   1
_chemical_formula_structural   CuH2(C3O2)2
_chemical_formula_sum   'Cu12 H24 C72 O48'
_cell_volume   2359.94438639
_cell_formula_units_Z   12
loop_
 _symmetry_equiv_pos_site_id
 _symmetry_equiv_pos_as_xyz
  1  'x, y, z'
loop_
 _atom_site_type_symbol
 _atom_site_label
 _atom_site_symmetry_multiplicity
 _atom_site_fract_x
 _atom_site_fract_y
 _atom_site_fract_z
 _atom_site_occupancy
  O  O0  1  0.15454590  0.16595960  0.35068023  1
  H  H1  1  0.15795344  0.32361054  0.36122568  1
  C  C2  1  0.13132283  0.17048685  0.47624879  1
  C  C3  1  0.15947052  0.32285923  0.47665322  1
  O  O4  1  0.17174046  0.46529384  0.33937745  1
  Cu  Cu5  1  0.06752590  0.18680664  0.01727263  1
  C  C6  1  0.18207008  0.47163357  0.46134129  1
  H  H7  1  0.13193458  0.18864514  0.74789449  1
  C  C8  1  0.17456678  0.39535074  0.55118802  1
  Cu  Cu9  1  0.19609716  0.03744310  0.63380145  1
  O  O10  1  0.16552529  0.22835113  0.96684904  1
  C  C11  1  0.16566766  0.30648316  0.91960577  1
  C  C12  1  0.14949803  0.24520087  0.69446447  1
  C  C13  1  0.14496637  0.24920151  0.54877059  1
  C  C14  1  0.16582439  0.31876742  0.76446182  1
  C  C15  1  0.17923742  0.39350496  0.69422095  1
  O  O16  1  0.06044868  0.09648564  0.89527585  1
  H  H17  1  0.19374834  0.44908427  0.75068070  1
  C  C18  1  0.09347727  0.01877381  0.89676666  1
  O  O19  1  0.11544552  0.10804206  0.55218689  1
  O  O20  1  0.16063604  0.36698609  0.99169986  1
  Cu  Cu21  1  0.21026957  0.64392084  0.42081897  1
  O  O22  1  0.10100967  0.63174939  0.02852685  1
  H  H23  1  0.00403993  0.81060000  0.48868066  1
  O  O24  1  0.23428709  0.72572027  0.30565642  1
  O  O25  1  0.22837582  0.99239990  0.45877707  1
  C  C26  1  0.07176479  0.61982021  0.91692219  1
  O  O27  1  0.11923333  0.60237881  0.81068081  1
  C  C28  1  0.13974343  0.75795094  0.62794879  1
  C  C29  1  0.11393854  0.88451869  0.77148524  1
  H  H30  1  0.17028027  0.86535210  0.84380715  1
  Cu  Cu31  1  0.23324300  0.63162908  0.78048806  1
  C  C32  1  0.06015665  0.95463818  0.79094550  1
  O  O33  1  0.19875299  0.74139922  0.71246572  1
  C  C34  1  0.09010033  0.83212908  0.66202877  1
  O  O35  1  0.19830963  0.54484609  0.51477659  1
  O  O36  1  0.13022952  0.71384801  0.51502546  1
  C  C37  1  0.02034709  0.84904475  0.57600548  1
  O  O38  1  0.14052644  0.99345262  0.98023701  1
  H  H39  1  0.42924941  0.04326072  0.19391255  1
  C  C40  1  0.49196174  0.31992840  0.22181538  1
  O  O41  1  0.38544480  0.18456839  0.19456976  1
  O  O42  1  0.31409515  0.09495092  0.38845341  1
  C  C43  1  0.41086810  0.21839854  0.08248096  1
  C  C44  1  0.46729507  0.29178208  0.09194754  1
  Cu  Cu45  1  0.26807320  0.17591891  0.27321757  1
  H  H46  1  0.46795100  0.29149448  0.31266117  1
  C  C47  1  0.29167299  0.02072563  0.38833119  1
  O  O48  1  0.39612895  0.05763839  0.71998395  1
  Cu  Cu49  1  0.46471599  0.09999779  0.88225170  1
  O  O50  1  0.39162506  0.18633698  0.96762831  1
  H  H51  1  0.47522481  0.30808079  0.86788225  1
  C  C52  1  0.49644091  0.33120715  0.97146626  1
  C  C53  1  0.42016758  0.83424676  0.12473036  1
  C  C54  1  0.30453357  0.73239573  0.21884030  1
  C  C55  1  0.33464699  0.95920450  0.29423961  1
  C  C56  1  0.40254461  0.97977192  0.20259402  1
  C  C57  1  0.30674627  0.87512594  0.29190396  1
  O  O58  1  0.32748103  0.67449647  0.15157639  1
  C  C59  1  0.34794696  0.81624962  0.20916172  1
  C  C60  1  0.44430363  0.91779414  0.12512168  1
  H  H61  1  0.44989436  0.78412074  0.05865331  1
  H  H62  1  0.25798868  0.85246685  0.36645417  1
  C  C63  1  0.42341619  0.76965483  0.61361443  1
  O  O64  1  0.35287994  0.66123038  0.76033090  1
  C  C65  1  0.40234087  0.67831325  0.65666773  1
  C  C66  1  0.40313907  0.91558182  0.63501296  1
  O  O67  1  0.44448438  0.62687773  0.59889886  1
  C  C68  1  0.37435378  0.83440046  0.66627938  1
  H  H69  1  0.31834196  0.82430223  0.73824784  1
  C  C70  1  0.47985510  0.92745542  0.56135460  1
  O  O71  1  0.27982328  0.97896774  0.73525706  1
  C  C72  1  0.49625648  0.77841124  0.52939093  1
  C  C73  1  0.36093024  0.98896464  0.69449387  1
  Cu  Cu74  1  0.73239428  0.00914980  0.45797225  1
  H  H75  1  0.63106219  0.47283437  0.11218643  1
  C  C76  1  0.59177801  0.40822997  0.36670442  1
  C  C77  1  0.58807318  0.42026320  0.10936095  1
  O  O78  1  0.54880684  0.37755559  0.47374770  1
  O  O79  1  0.70913977  0.16897587  0.30286335  1
  C  C80  1  0.55635192  0.38092028  0.22781395  1
  C  C81  1  0.74333867  0.18538207  0.41129814  1
  O  O82  1  0.65587881  0.45052081  0.37968722  1
  O  O83  1  0.53351439  0.01636983  0.00275465  1
  C  C84  1  0.69901168  0.13985069  0.85593455  1
  C  C85  1  0.55703268  0.39740182  0.98005715  1
  O  O86  1  0.62487432  0.25902359  0.76732638  1
  O  O87  1  0.55845668  0.13756749  0.74369866  1
  C  C88  1  0.59755913  0.43583824  0.85595845  1
  C  C89  1  0.62324690  0.18061136  0.78109858  1
  Cu  Cu90  1  0.58820520  0.32635026  0.61894995  1
  C  C91  1  0.70259623  0.05240505  0.84937419  1
  O  O92  1  0.55746708  0.41438210  0.74009488  1
  H  H93  1  0.65026927  0.00918239  0.80376374  1
  H  H94  1  0.74322334  0.25929858  0.93967430  1
  O  O95  1  0.64940558  0.49192827  0.85738431  1
  O  O96  1  0.64817149  0.81364582  0.37604743  1
  C  C97  1  0.60093494  0.87607396  0.41460968  1
  O  O98  1  0.62950512  0.94980834  0.39941559  1
  O  O99  1  0.70449499  0.72958002  0.05627152  1
  H  H100  1  0.52961266  0.72092434  0.48923961  1
  C  C101  1  0.51406632  0.94355986  0.02449300  1
  O  O102  1  0.54593059  0.88574666  0.94940294  1
  O  O103  1  0.72488506  0.87957258  0.87890284  1
  Cu  Cu104  1  0.64216303  0.82332528  0.98556356  1
  C  C105  1  0.52718132  0.86086187  0.50278961  1
  H  H106  1  0.73476485  0.71381712  0.80804246  1
  H  H107  1  0.50502827  0.99158762  0.53324141  1
  C  C108  1  0.78283585  0.26758430  0.44494918  1
  C  C109  1  0.83887451  0.39548115  0.35570141  1
  C  C110  1  0.84025599  0.45260419  0.23883231  1
  O  O111  1  0.96082456  0.16347372  0.10247262  1
  O  O112  1  0.80044280  0.43043057  0.12432865  1
  C  C113  1  0.89055198  0.20230599  0.06558006  1
  C  C114  1  0.78698027  0.32629384  0.33526516  1
  C  C115  1  0.87962524  0.41397367  0.48560363  1
  O  O116  1  0.87377691  0.27668301  0.10391190  1
  H  H117  1  0.90232327  0.03425254  0.01414384  1
  H  H118  1  0.75866015  0.30755255  0.23460809  1
  O  O119  1  0.96036443  0.42534599  0.73914739  1
  H  H120  1  0.93065562  0.01812923  0.73791448  1
  O  O121  1  0.88671592  0.32246577  0.82717263  1
  H  H122  1  0.82656457  0.22526911  0.64806642  1
  Cu  Cu123  1  0.86047687  0.37324391  0.99256368  1
  C  C124  1  0.90946431  0.36849266  0.72579638  1
  C  C125  1  0.82507406  0.27787788  0.56845950  1
  C  C126  1  0.87234230  0.35249500  0.58254751  1
  C  C127  1  0.77817873  0.02178694  0.90877603  1
  C  C128  1  0.82858682  0.15507841  0.98563963  1
  C  C129  1  0.84130375  0.06774283  0.97657394  1
  C  C130  1  0.75399119  0.19263067  0.93004468  1
  O  O131  1  0.75321794  0.12632560  0.50319891  1
  H  H132  1  0.91580805  0.46891177  0.50673815  1
  Cu  Cu133  1  0.83285054  0.61972361  0.31289201  1
  O  O134  1  0.88199600  0.52002926  0.24355389  1
  O  O135  1  0.81145178  0.70786466  0.20721950  1
  C  C136  1  0.78206930  0.70906541  0.08456729  1
  H  H137  1  0.94345897  0.64983407  0.09818468  1
  O  O138  1  0.87323063  0.63223446  0.48889367  1
  O  O139  1  0.86364192  0.85812992  0.45006045  1
  Cu  Cu140  1  0.75961051  0.79197772  0.41856932  1
  C  C141  1  0.80344667  0.69179310  0.83149062  1
  C  C142  1  0.78774661  0.93080462  0.91780795  1
  O  O143  1  0.76237392  0.70354563  0.55151412  1
  C  C144  1  0.86103638  0.66264777  0.73074455  1
  C  C145  1  0.82974922  0.66389555  0.58525847  1
  C  C146  1  0.94534714  0.63162542  0.75306284  1
  C  C147  1  0.83467945  0.68807715  0.96463090  1
  C  C148  1  0.96172351  0.91368778  0.61581588  1
  O  O149  1  0.85126441  0.90138691  0.97676398  1
  C  C150  1  0.97581830  0.63540311  0.88864419  1
  C  C151  1  0.88186327  0.91764861  0.53563430  1
  C  C152  1  0.98205116  0.96718021  0.72282790  1
  C  C153  1  0.91895078  0.65672101  0.99650457  1
  H  H154  1  0.98820987  0.61058831  0.67111245  1
  O  O155  1  0.82849655  0.97536209  0.56232824  1
