# generated using pymatgen
data_CuH2(C3O2)2
_symmetry_space_group_name_H-M   'P 1'
_cell_length_a   23.38615632
_cell_length_b   13.97067812
_cell_length_c   8.59930410
_cell_angle_alpha   90.00000000
_cell_angle_beta   90.00000000
_cell_angle_gamma   90.00000000
_symmetry_Int_Tables_number   1
_chemical_formula_structural   CuH2(C3O2)2
_chemical_formula_sum   'Cu12 H24 C72 O48'
_cell_volume   2809.56860949
_cell_formula_units_Z   12
loop_
 _symmetry_equiv_pos_site_id
 _symmetry_equiv_pos_as_xyz
  1  'x, y, z'
loop_
 _atom_site_type_symbol
 _atom_site_label
 _atom_site_symmetry_multiplicity
 _atom_site_fract_x
 _atom_site_fract_y
 _atom_site_fract_z
 _atom_site_occupancy
  O  O0  1  0.09467217  0.22062584  0.20014953  1
  C  C1  1  0.12290229  0.28889567  0.15495524  1
  O  O2  1  0.13928443  0.35691960  0.24456212  1
  Cu  Cu3  1  0.15286987  0.01205846  0.39540657  1
  Cu  Cu4  1  0.08121723  0.43007283  0.33238355  1
  O  O5  1  0.04959117  0.47344987  0.14321602  1
  C  C6  1  0.19424968  0.34130451  0.76313343  1
  C  C7  1  0.16708960  0.27610311  0.66482674  1
  C  C8  1  0.17988885  0.34915825  0.91864770  1
  C  C9  1  0.11761005  0.21399014  0.89989857  1
  C  C10  1  0.12763915  0.21373164  0.73780288  1
  O  O11  1  0.23507329  0.41825914  0.54769305  1
  H  H12  1  0.09122611  0.15376425  0.95014994  1
  C  C13  1  0.10496695  0.13509384  0.64128878  1
  H  H14  1  0.17691439  0.26937706  0.54117336  1
  C  C15  1  0.23724997  0.40581144  0.69322895  1
  O  O16  1  0.06620849  0.08524512  0.70435649  1
  C  C17  1  0.14183171  0.28520083  0.98781553  1
  O  O18  1  0.12196504  0.12326089  0.50359242  1
  H  H19  1  0.19567672  0.40945512  0.98994793  1
  C  C20  1  0.13494403  0.77427155  0.21116037  1
  C  C21  1  0.08248124  0.62767360  0.16651293  1
  C  C22  1  0.08600703  0.79443859  0.32367039  1
  C  C23  1  0.17270941  0.68145559  0.23011512  1
  C  C24  1  0.06438822  0.89217934  0.31720607  1
  C  C25  1  0.03828073  0.56086816  0.12629274  1
  H  H26  1  0.03432823  0.76485355  0.09968761  1
  H  H27  1  0.15038279  0.52620801  0.21787623  1
  O  O28  1  0.09597447  0.95697285  0.25880692  1
  H  H29  1  0.15647324  0.83368744  0.14880428  1
  C  C30  1  0.22167883  0.68408649  0.11431004  1
  C  C31  1  0.19882188  0.70120732  0.39576648  1
  C  C32  1  0.13547746  0.60015275  0.20792981  1
  C  C33  1  0.06931559  0.73457754  0.18327158  1
  O  O34  1  0.02543891  0.91705181  0.40809985  1
  C  C35  1  0.09437668  0.74733501  0.48801486  1
  C  C36  1  0.03171804  0.59903853  0.46557141  1
  O  O37  1  0.23381293  0.76129478  0.05175778  1
  H  H38  1  0.24361749  0.73130125  0.38880461  1
  O  O39  1  0.23470102  0.96540732  0.19070769  1
  C  C40  1  0.08757439  0.63951222  0.49914006  1
  O  O41  1  0.02815952  0.50990941  0.44549652  1
  O  O42  1  0.24975406  0.60857205  0.10626264  1
  O  O43  1  0.15310533  0.92456569  0.57732889  1
  O  O44  1  0.22407447  0.61035373  0.79916082  1
  O  O45  1  0.22786915  0.84574169  0.65100728  1
  H  H46  1  0.06999107  0.78582586  0.57699095  1
  C  C47  1  0.22812916  0.62004536  0.65843112  1
  C  C48  1  0.18312187  0.85166884  0.57770329  1
  O  O49  1  0.00285117  0.88573075  0.73299123  1
  Cu  Cu50  1  0.03142571  0.98387266  0.60181141  1
  C  C51  1  0.17828912  0.65805174  0.56454304  1
  C  C52  1  0.13257209  0.59012319  0.55706576  1
  Cu  Cu53  1  0.23886577  0.78813044  0.83826003  1
  H  H54  1  0.13599643  0.51202851  0.58767743  1
  C  C55  1  0.16452307  0.75311071  0.51713165  1
  C  C56  1  0.44076290  0.07101403  0.06657930  1
  C  C57  1  0.27302019  0.11990741  0.13229620  1
  H  H58  1  0.27895716  0.22874774  0.32093017  1
  Cu  Cu59  1  0.28367696  0.49421301  0.43461854  1
  O  O60  1  0.32022744  0.45124553  0.06385912  1
  C  C61  1  0.30348868  0.28316470  0.09616800  1
  C  C62  1  0.28652315  0.20971803  0.19795254  1
  C  C63  1  0.31108674  0.38365528  0.15164940  1
  O  O64  1  0.25554249  0.05604516  0.38877618  1
  O  O65  1  0.30735977  0.39649781  0.29767616  1
  H  H66  1  0.46636016  0.12269833  0.14031997  1
  O  O67  1  0.43994020  0.04860443  0.37124617  1
  C  C68  1  0.48366709  0.44219946  0.35118290  1
  C  C69  1  0.25109010  0.04128226  0.23406781  1
  O  O70  1  0.27570699  0.44481936  0.77794677  1
  H  H71  1  0.33110524  0.31547088  0.86037190  1
  Cu  Cu72  1  0.39596568  0.29902173  0.62623281  1
  O  O73  1  0.28579641  0.07348880  0.68095991  1
  C  C74  1  0.30996551  0.15301437  0.71665447  1
  C  C75  1  0.29976394  0.17381131  0.87919072  1
  O  O76  1  0.32851619  0.21501405  0.62281688  1
  C  C77  1  0.43342802  0.08236927  0.90503044  1
  H  H78  1  0.39635280  0.03051241  0.69190613  1
  H  H79  1  0.26337470  0.03116004  0.92759647  1
  O  O80  1  0.44369160  0.19046879  0.70096976  1
  C  C81  1  0.40425350  0.01552524  0.81465915  1
  C  C82  1  0.31177992  0.26357943  0.94005016  1
  C  C83  1  0.45637472  0.17398751  0.83808555  1
  O  O84  1  0.48659268  0.23145430  0.91347334  1
  O  O85  1  0.45325269  0.38778005  0.61549441  1
  C  C86  1  0.49100874  0.38825624  0.50336438  1
  C  C87  1  0.27749902  0.10210324  0.97523311  1
  O  O88  1  0.39868670  0.70271637  0.36961374  1
  H  H89  1  0.36027138  0.86352987  0.10274694  1
  C  C90  1  0.38380898  0.92097274  0.03807202  1
  C  C91  1  0.41267675  0.99029290  0.29930708  1
  C  C92  1  0.44837615  0.57945000  0.21566356  1
  O  O93  1  0.38597787  0.92266258  0.37122121  1
  O  O94  1  0.40723836  0.71720244  0.11695161  1
  C  C95  1  0.41733858  0.67484141  0.23171623  1
  C  C96  1  0.44935655  0.52330856  0.35184450  1
  C  C97  1  0.41298294  0.99225364  0.12387087  1
  H  H98  1  0.43147087  0.55119623  0.46263456  1
  C  C99  1  0.47188022  0.55242572  0.07501594  1
  Cu  Cu100  1  0.41619679  0.81017100  0.47763135  1
  O  O101  1  0.31557935  0.80582013  0.84371758  1
  C  C102  1  0.37701650  0.93287886  0.87759771  1
  O  O103  1  0.33994930  0.89427533  0.63419492  1
  C  C104  1  0.34077604  0.87336743  0.78202261  1
  O  O105  1  0.27100843  0.60522915  0.57508088  1
  Cu  Cu106  1  0.26596805  0.52843506  0.93285473  1
  Cu  Cu107  1  0.30027771  0.98571219  0.51391717  1
  H  H108  1  0.46565805  0.59539378  0.97077324  1
  O  O109  1  0.47166690  0.72019702  0.75785111  1
  O  O110  1  0.48703816  0.81406445  0.56835299  1
  C  C111  1  0.49809894  0.79013483  0.71522286  1
  H  H112  1  0.53693451  0.34510557  0.20343476  1
  C  C113  1  0.50999843  0.41030925  0.21582004  1
  C  C114  1  0.50458745  0.46814259  0.07910389  1
  O  O115  1  0.59053130  0.13130085  0.78834711  1
  Cu  Cu116  1  0.57030634  0.25033272  0.86370770  1
  C  C117  1  0.61984183  0.07114432  0.87533629  1
  C  C118  1  0.54009928  0.44253574  0.94573933  1
  O  O119  1  0.57135837  0.36283966  0.95879077  1
  O  O120  1  0.66151284  0.09984180  0.93745507  1
  O  O121  1  0.54028035  0.48778672  0.82953726  1
  O  O122  1  0.53231222  0.33682348  0.50808686  1
  C  C123  1  0.62836102  0.76606742  0.18025036  1
  O  O124  1  0.67180011  0.80994558  0.24909561  1
  C  C125  1  0.60160622  0.82888591  0.05799793  1
  O  O126  1  0.61801932  0.68482633  0.20739995  1
  Cu  Cu127  1  0.73781745  0.75286600  0.29294546  1
  C  C128  1  0.61847367  0.92155813  0.03182283  1
  H  H129  1  0.64819703  0.96007274  0.11301574  1
  C  C130  1  0.59830005  0.97021197  0.89952204  1
  C  C131  1  0.54358693  0.83873159  0.81666950  1
  C  C132  1  0.55780984  0.93468872  0.79527493  1
  O  O133  1  0.73182342  0.71315505  0.92700908  1
  C  C134  1  0.56370832  0.78711888  0.94755792  1
  H  H135  1  0.54241808  0.97968660  0.69464677  1
  H  H136  1  0.54907350  0.71511022  0.96075796  1
  O  O137  1  0.79735255  0.68024120  0.36011039  1
  Cu  Cu138  1  0.93926659  0.64945864  0.23295098  1
  C  C139  1  0.84427410  0.71648656  0.41379288  1
  O  O140  1  0.88504430  0.73316738  0.32391051  1
  O  O141  1  0.98611828  0.58937918  0.10966113  1
  O  O142  1  0.99185546  0.65215303  0.41115995  1
  O  O143  1  0.77817677  0.79169619  0.11059846  1
  C  C144  1  0.90328094  0.83428444  0.76549200  1
  H  H145  1  0.94083758  0.79922212  0.54656886  1
  C  C146  1  0.81378132  0.77717816  0.83471082  1
  C  C147  1  0.85017688  0.74836504  0.57521021  1
  C  C148  1  0.80526730  0.73986174  0.68600433  1
  C  C149  1  0.90066785  0.79366566  0.61941846  1
  C  C150  1  0.95586616  0.88787279  0.81391074  1
  C  C151  1  0.86083753  0.83143474  0.87937461  1
  H  H152  1  0.76787072  0.69468868  0.66048891  1
  O  O153  1  0.95225058  0.93242852  0.93144868  1
  C  C154  1  0.77065428  0.76244064  0.96510607  1
  H  H155  1  0.86161117  0.86927118  0.98720215  1
