# generated using pymatgen
data_CuH2(C3O2)2
_symmetry_space_group_name_H-M   'P 1'
_cell_length_a   12.73511012
_cell_length_b   13.84543564
_cell_length_c   13.50383900
_cell_angle_alpha   90.00000000
_cell_angle_beta   90.00000000
_cell_angle_gamma   90.00000000
_symmetry_Int_Tables_number   1
_chemical_formula_structural   CuH2(C3O2)2
_chemical_formula_sum   'Cu12 H24 C72 O48'
_cell_volume   2381.03939630
_cell_formula_units_Z   12
loop_
 _symmetry_equiv_pos_site_id
 _symmetry_equiv_pos_as_xyz
  1  'x, y, z'
loop_
 _atom_site_type_symbol
 _atom_site_label
 _atom_site_symmetry_multiplicity
 _atom_site_fract_x
 _atom_site_fract_y
 _atom_site_fract_z
 _atom_site_occupancy
  Cu  Cu0  1  0.19326852  0.18958013  0.03613808  1
  C  C1  1  0.16384132  0.44161382  0.46184735  1
  O  O2  1  0.23018534  0.27703503  0.12845952  1
  O  O3  1  0.08656638  0.19926274  0.38685974  1
  C  C4  1  0.14902521  0.26315445  0.41957918  1
  C  C5  1  0.18377736  0.43933952  0.16266060  1
  C  C6  1  0.16740417  0.33437362  0.17101009  1
  O  O7  1  0.10598022  0.06837533  0.18227829  1
  C  C8  1  0.10576105  0.36161029  0.42710967  1
  O  O9  1  0.07966504  0.30684912  0.20310092  1
  Cu  Cu10  1  0.06393198  0.18004921  0.25270051  1
  H  H11  1  0.02639966  0.47799112  0.21597464  1
  H  H12  1  0.24773804  0.44027638  0.48086337  1
  O  O13  1  0.24277500  0.24423444  0.43712800  1
  H  H14  1  0.23262172  0.42442644  0.85354921  1
  H  H15  1  0.07434466  0.31635065  0.90952864  1
  O  O16  1  0.08686165  0.14740303  0.78498383  1
  C  C17  1  0.06877699  0.13854855  0.87619027  1
  O  O18  1  0.12954974  0.10377242  0.93570409  1
  Cu  Cu19  1  0.02239213  0.08297720  0.67720945  1
  O  O20  1  0.04053405  0.46917553  0.94535492  1
  C  C21  1  0.11819554  0.60156325  0.17600541  1
  C  C22  1  0.03109130  0.66640467  0.20064894  1
  O  O23  1  0.04700000  0.75869963  0.20569240  1
  C  C24  1  0.21696041  0.64339427  0.14786347  1
  C  C25  1  0.11684197  0.52931439  0.46426270  1
  C  C26  1  0.16220677  0.80520251  0.19232208  1
  C  C27  1  0.22898098  0.74665180  0.12245790  1
  O  O28  1  0.00277237  0.94874094  0.23221303  1
  H  H29  1  0.19657763  0.80080129  0.26772954  1
  C  C30  1  0.17327378  0.91347738  0.17314812  1
  C  C31  1  0.09327169  0.97888878  0.20151255  1
  C  C32  1  0.17160423  0.76730749  0.01797218  1
  C  C33  1  0.00834575  0.54078985  0.44416449  1
  C  C34  1  0.17559492  0.61754841  0.49416345  1
  O  O35  1  0.12156296  0.69468377  0.49060376  1
  C  C36  1  0.10530845  0.50264416  0.19092576  1
  O  O37  1  0.06178376  0.86055192  0.58798101  1
  O  O38  1  0.07514436  0.96466623  0.70431057  1
  O  O39  1  0.15863716  0.57601539  0.79586815  1
  Cu  Cu40  1  0.10311047  0.59767800  0.92837028  1
  O  O41  1  0.20691445  0.82749134  0.96675356  1
  C  C42  1  0.03811678  0.88818230  0.67275212  1
  Cu  Cu43  1  0.19064912  0.81393319  0.52291942  1
  O  O44  1  0.09514840  0.71211363  0.99590671  1
  C  C45  1  0.24941232  0.59189521  0.76242070  1
  H  H46  1  0.34914102  0.42622845  0.11002174  1
  C  C47  1  0.28395490  0.47171335  0.13354584  1
  O  O48  1  0.38215747  0.16093227  0.26366330  1
  C  C49  1  0.46549447  0.12129611  0.23887080  1
  Cu  Cu50  1  0.35571748  0.25288526  0.36007652  1
  H  H51  1  0.28216899  0.02706680  0.13327153  1
  O  O52  1  0.48029260  0.30536767  0.37486818  1
  H  H53  1  0.34610040  0.00868068  0.35810287  1
  Cu  Cu54  1  0.48114711  0.18200333  0.04799611  1
  C  C55  1  0.49940239  0.02809866  0.28399995  1
  O  O56  1  0.42975222  0.01244130  0.05430772  1
  O  O57  1  0.41556429  0.21285727  0.92683636  1
  C  C58  1  0.38129674  0.35955334  0.84343011  1
  C  C59  1  0.30789561  0.43221089  0.82059857  1
  C  C60  1  0.34601497  0.27617764  0.90473733  1
  C  C61  1  0.48151029  0.36696845  0.80471054  1
  O  O62  1  0.25797889  0.27509479  0.94062321  1
  C  C63  1  0.34280126  0.87900311  0.10845908  1
  O  O64  1  0.47336334  0.54515648  0.08656072  1
  C  C65  1  0.45946295  0.88762958  0.37861734  1
  C  C66  1  0.40488568  0.59881391  0.10633898  1
  C  C67  1  0.26658783  0.94709049  0.13903567  1
  O  O68  1  0.29655490  0.86937881  0.45473934  1
  C  C69  1  0.34156478  0.77692373  0.11927077  1
  C  C70  1  0.38577484  0.83214573  0.43845999  1
  C  C71  1  0.29871430  0.57268143  0.13408375  1
  O  O72  1  0.41546078  0.71809538  0.10804020  1
  C  C73  1  0.44013549  0.92841034  0.07166017  1
  C  C74  1  0.43358920  0.98223800  0.34946232  1
  O  O75  1  0.40607378  0.74800278  0.46644650  1
  C  C76  1  0.33242989  0.51890984  0.77193437  1
  Cu  Cu77  1  0.34804684  0.70727955  0.59422057  1
  O  O78  1  0.27866650  0.66808181  0.72030163  1
  C  C79  1  0.43607528  0.53153419  0.74066435  1
  H  H80  1  0.46457634  0.59801113  0.71103883  1
  O  O81  1  0.26812669  0.61252719  0.51735354  1
  C  C82  1  0.67532538  0.24345348  0.37277959  1
  H  H83  1  0.64413665  0.02675370  0.20202712  1
  H  H84  1  0.62000921  0.24862373  0.30448663  1
  C  C85  1  0.64257562  0.27434749  0.46544168  1
  C  C86  1  0.53588728  0.32038342  0.45965776  1
  O  O87  1  0.52581914  0.15705533  0.17295024  1
  O  O88  1  0.61520848  0.22098056  0.00656229  1
  C  C89  1  0.69851583  0.27074415  0.55374939  1
  H  H90  1  0.66284046  0.30449472  0.61984655  1
  H  H91  1  0.53437232  0.30725614  0.81794671  1
  O  O92  1  0.67955781  0.40089198  0.74516639  1
  C  C93  1  0.61319747  0.46569141  0.71856631  1
  O  O94  1  0.68549616  0.08058774  0.97730006  1
  C  C95  1  0.69360458  0.16751883  0.98417393  1
  C  C96  1  0.50566137  0.45410000  0.75507463  1
  O  O97  1  0.50261422  0.36162484  0.52814818  1
  H  H98  1  0.74005919  0.35621872  0.99219869  1
  C  C99  1  0.55697289  0.84538441  0.35442270  1
  C  C100  1  0.62070586  0.89678622  0.29146461  1
  H  H101  1  0.57917125  0.77321616  0.38785925  1
  C  C102  1  0.72792053  0.85663323  0.27167515  1
  O  O103  1  0.52332909  0.87701274  0.03370987  1
  O  O104  1  0.74427096  0.76780046  0.27930325  1
  H  H105  1  0.50112705  0.80942051  0.04564541  1
  C  C106  1  0.59590705  0.98887990  0.25516302  1
  O  O107  1  0.63959135  0.53767022  0.66889548  1
  Cu  Cu108  1  0.72570755  0.54723344  0.54528324  1
  H  H109  1  0.95667325  0.30870539  0.37297912  1
  H  H110  1  0.91931476  0.16874426  0.46181838  1
  C  C111  1  0.84034366  0.19721266  0.46057388  1
  O  O112  1  0.92071261  0.11652772  0.28986930  1
  C  C113  1  0.95297736  0.46074259  0.41074305  1
  C  C114  1  0.77758586  0.20468053  0.37160237  1
  C  C115  1  0.81101520  0.16967406  0.27415448  1
  O  O116  1  0.79620611  0.41272232  0.33426565  1
  H  H117  1  0.90502261  0.05527836  0.25905942  1
  C  C118  1  0.83531998  0.47138506  0.38532343  1
  O  O119  1  0.77047495  0.18189712  0.19690832  1
  C  C120  1  0.99935768  0.37070132  0.40162311  1
  C  C121  1  0.87888521  0.15278525  0.92821529  1
  C  C122  1  0.91064920  0.34743790  0.96140843  1
  O  O123  1  0.95490813  0.19380102  0.63739702  1
  C  C124  1  0.86245870  0.22191663  0.64441231  1
  C  C125  1  0.79819762  0.22825042  0.55075807  1
  C  C126  1  0.94332503  0.45229084  0.97432849  1
  Cu  Cu127  1  0.83096568  0.38831744  0.74382151  1
  C  C128  1  0.97774086  0.19025653  0.91615365  1
  O  O129  1  0.82532514  0.25496268  0.72144488  1
  H  H130  1  0.86953710  0.07516739  0.92065295  1
  C  C131  1  0.79732161  0.21360325  0.96121706  1
  C  C132  1  0.80812982  0.31319672  0.97670778  1
  C  C133  1  0.99303918  0.28772367  0.92801016  1
  Cu  Cu134  1  0.82910907  0.69945350  0.18255481  1
  O  O135  1  0.80884803  0.73960389  0.04267406  1
  O  O136  1  0.88568995  0.87697813  0.02953135  1
  O  O137  1  0.94468045  0.62890310  0.21859045  1
  O  O138  1  0.79142986  0.91116440  0.23225255  1
  Cu  Cu139  1  0.90768163  0.88309182  0.15563873  1
  O  O140  1  0.78240399  0.54299561  0.42247632  1
  H  H141  1  0.96777045  0.61276444  0.45044011  1
  C  C142  1  0.86237867  0.57503583  0.70279969  1
  C  C143  1  0.94929484  0.72756695  0.69003185  1
  H  H144  1  0.81414076  0.64145967  0.89303470  1
  C  C145  1  0.88877783  0.66895716  0.74906203  1
  C  C146  1  0.89312173  0.77424651  0.88656032  1
  C  C147  1  0.95032996  0.83722625  0.83091577  1
  O  O148  1  0.85989425  0.55995015  0.61329877  1
  C  C149  1  0.85867169  0.68637087  0.84606558  1
  C  C150  1  0.97708941  0.81634123  0.73409458  1
  H  H151  1  0.96758991  0.70297534  0.61622289  1
  H  H152  1  0.97490331  0.90804722  0.86590709  1
  C  C153  1  0.85658326  0.79948294  0.98758587  1
  O  O154  1  0.84451169  0.51170507  0.76819236  1
  O  O155  1  0.88316083  0.51349708  0.99707881  1
