# generated using pymatgen
data_ZnH3(C3O2)3
_symmetry_space_group_name_H-M   'P 1'
_cell_length_a   17.64927023
_cell_length_b   6.24310000
_cell_length_c   15.07531334
_cell_angle_alpha   90.00000000
_cell_angle_beta   90.00000000
_cell_angle_gamma   90.00000000
_symmetry_Int_Tables_number   1
_chemical_formula_structural   ZnH3(C3O2)3
_chemical_formula_sum   'Zn8 H24 C72 O48'
_cell_volume   1661.09087268
_cell_formula_units_Z   8
loop_
 _symmetry_equiv_pos_site_id
 _symmetry_equiv_pos_as_xyz
  1  'x, y, z'
loop_
 _atom_site_type_symbol
 _atom_site_label
 _atom_site_symmetry_multiplicity
 _atom_site_fract_x
 _atom_site_fract_y
 _atom_site_fract_z
 _atom_site_occupancy
  C  C0  1  0.17194334  0.29887281  0.25818133  1
  O  O1  1  0.14352748  0.30587960  0.18348477  1
  O  O2  1  0.13393995  0.27179542  0.32834372  1
  Zn  Zn3  1  0.10484077  0.01070082  0.42226466  1
  O  O4  1  0.13689971  0.35092641  0.98719353  1
  C  C5  1  0.12587075  0.29831561  0.68215243  1
  C  C6  1  0.17168858  0.32908444  0.75619822  1
  C  C7  1  0.16836352  0.25708472  0.59610313  1
  C  C8  1  0.17331950  0.38123252  0.91772492  1
  H  H9  1  0.01875716  0.27967804  0.61385036  1
  C  C10  1  0.05057854  0.34502046  0.83555083  1
  C  C11  1  0.12859437  0.36003058  0.83237625  1
  C  C12  1  0.04775624  0.29813984  0.67844242  1
  O  O13  1  0.13102093  0.26808541  0.52715125  1
  C  C14  1  0.00858760  0.33800246  0.75683356  1
  H  H15  1  0.02079322  0.36009005  0.89893838  1
  H  H16  1  0.23477493  0.33301423  0.75203778  1
  O  O17  1  0.24348819  0.37209093  0.91100150  1
  O  O18  1  0.23932590  0.25267441  0.59705564  1
  H  H19  1  0.21328139  0.80825099  0.23680724  1
  O  O20  1  0.20304046  0.78172963  0.07973400  1
  O  O21  1  0.05225138  0.80968380  0.18617003  1
  O  O22  1  0.04108816  0.79835333  0.33429780  1
  O  O23  1  0.20253448  0.82982978  0.39022053  1
  C  C24  1  0.01591085  0.79900558  0.25557368  1
  Zn  Zn25  1  0.08924498  0.56368086  0.08880219  1
  C  C26  1  0.02393073  0.82566977  0.75628371  1
  C  C27  1  0.14464380  0.83172328  0.82965665  1
  C  C28  1  0.06107709  0.81030134  0.67510421  1
  C  C29  1  0.18189037  0.81138601  0.74685457  1
  C  C30  1  0.02183123  0.83836727  0.91978398  1
  C  C31  1  0.13959977  0.80923063  0.66845855  1
  C  C32  1  0.06656144  0.85082036  0.83441572  1
  H  H33  1  0.16375772  0.81782198  0.60279888  1
  H  H34  1  0.18230663  0.84148241  0.88789939  1
  C  C35  1  0.01592062  0.79223753  0.59125322  1
  O  O36  1  0.05544132  0.78601500  0.52089828  1
  O  O37  1  0.05798902  0.84087164  0.98969491  1
  C  C38  1  0.29209153  0.30494436  0.17506354  1
  C  C39  1  0.41652709  0.33718424  0.09440003  1
  C  C40  1  0.25619363  0.29769179  0.25842508  1
  C  C41  1  0.41622096  0.33023772  0.42031379  1
  C  C42  1  0.36971954  0.31385577  0.17706482  1
  C  C43  1  0.37034975  0.30965557  0.33734455  1
  C  C44  1  0.41001549  0.31223710  0.25748966  1
  C  C45  1  0.29162679  0.30286990  0.34078348  1
  H  H46  1  0.25812609  0.30838739  0.11172626  1
  H  H47  1  0.25768797  0.30933139  0.40186859  1
  O  O48  1  0.38232238  0.31968251  0.02110851  1
  O  O49  1  0.37771710  0.30249068  0.48902236  1
  H  H50  1  0.47070251  0.32835649  0.25992891  1
  O  O51  1  0.48739169  0.33678316  0.41827978  1
  O  O52  1  0.48748155  0.34448875  0.09742010  1
  O  O53  1  0.40828867  0.28956344  0.66405876  1
  C  C54  1  0.43143953  0.28037788  0.74413011  1
  O  O55  1  0.39081189  0.30106348  0.81031559  1
  Zn  Zn56  1  0.34030876  0.02767653  0.58369146  1
  H  H57  1  0.42234663  0.80442982  0.38507349  1
  C  C58  1  0.39417426  0.81708871  0.31845889  1
  H  H59  1  0.42750617  0.77693257  0.09428000  1
  C  C60  1  0.39661340  0.78853495  0.15755060  1
  C  C61  1  0.31525645  0.81321625  0.31786977  1
  C  C62  1  0.43328481  0.79615846  0.23805851  1
  C  C63  1  0.27348744  0.82482865  0.40388622  1
  C  C64  1  0.31730760  0.78682709  0.16099500  1
  O  O65  1  0.30989917  0.79968732  0.00569075  1
  C  C66  1  0.27336984  0.78237222  0.07594051  1
  C  C67  1  0.27472242  0.80060872  0.23940385  1
  O  O68  1  0.29944027  0.82508054  0.47969331  1
  O  O69  1  0.45086898  0.76033892  0.90297514  1
  O  O70  1  0.30245995  0.76920727  0.67634669  1
  H  H71  1  0.46306380  0.76788686  0.74700179  1
  O  O72  1  0.44806474  0.79824986  0.59019434  1
  O  O73  1  0.30027012  0.78397901  0.81976772  1
  C  C74  1  0.26761111  0.78990124  0.74716962  1
  Zn  Zn75  1  0.35587845  0.55617548  0.89957537  1
  O  O76  1  0.64836909  0.29936738  0.17401787  1
  C  C77  1  0.67837065  0.29504532  0.24825067  1
  O  O78  1  0.64294022  0.27787913  0.32052607  1
  O  O79  1  0.64262153  0.30371943  0.51318431  1
  C  C80  1  0.63325083  0.30291483  0.67032779  1
  C  C81  1  0.67446050  0.30685719  0.75029977  1
  C  C82  1  0.54922464  0.27704355  0.82917740  1
  C  C83  1  0.67718269  0.30711235  0.58407708  1
  C  C84  1  0.67141459  0.28920118  0.91274971  1
  C  C85  1  0.63021968  0.27991876  0.82709927  1
  C  C86  1  0.55489823  0.28229566  0.66785910  1
  O  O87  1  0.63739164  0.28806563  0.98672563  1
  C  C88  1  0.51611006  0.27286967  0.74779497  1
  H  H89  1  0.51591259  0.28166085  0.89102663  1
  H  H90  1  0.52301676  0.26975461  0.60261420  1
  H  H91  1  0.74035346  0.32064064  0.74706361  1
  O  O92  1  0.74765297  0.29919886  0.58596225  1
  O  O93  1  0.74175953  0.31212058  0.90734889  1
  O  O94  1  0.69582650  0.74560312  0.40598999  1
  O  O95  1  0.55298325  0.74766616  0.31710169  1
  O  O96  1  0.69751698  0.77926503  0.07703632  1
  O  O97  1  0.55157691  0.76428416  0.17269180  1
  H  H98  1  0.70631623  0.78875983  0.25531323  1
  Zn  Zn99  1  0.59154275  0.53164143  0.41315831  1
  Zn  Zn100  1  0.60606962  0.52531929  0.07720942  1
  C  C101  1  0.51747164  0.76793611  0.24503706  1
  O  O102  1  0.55826961  0.74286769  0.97881046  1
  C  C103  1  0.64337211  0.77382528  0.66462926  1
  C  C104  1  0.68205273  0.76043755  0.74589048  1
  H  H105  1  0.67752413  0.73839934  0.88890615  1
  C  C106  1  0.64492291  0.75052850  0.82506291  1
  C  C107  1  0.56456988  0.77647770  0.66570325  1
  C  C108  1  0.56463967  0.75645295  0.82238041  1
  H  H109  1  0.67412079  0.79660170  0.60400956  1
  C  C110  1  0.51567241  0.78352899  0.57859355  1
  C  C111  1  0.52277362  0.76862877  0.74314429  1
  C  C112  1  0.52235767  0.73530085  0.90807125  1
  O  O113  1  0.55232792  0.78799069  0.51070732  1
  C  C114  1  0.92608181  0.31725693  0.09391453  1
  C  C115  1  0.88080295  0.27276253  0.33583511  1
  H  H116  1  0.77641404  0.28698896  0.11178267  1
  C  C117  1  0.88219099  0.29648013  0.18164456  1
  C  C118  1  0.92426831  0.28326932  0.25876478  1
  C  C119  1  0.80225671  0.27863380  0.33584370  1
  H  H120  1  0.77109635  0.28385051  0.39995869  1
  C  C121  1  0.80360579  0.28473102  0.17639619  1
  C  C122  1  0.92714636  0.25929298  0.41994339  1
  O  O123  1  0.89274593  0.29528961  0.02381839  1
  C  C124  1  0.76331884  0.28128567  0.25607967  1
  O  O125  1  0.88517614  0.26422873  0.48706847  1
  H  H126  1  0.98596028  0.25871743  0.26118680  1
  O  O127  1  0.99624088  0.33386525  0.09399598  1
  O  O128  1  0.99617694  0.25116590  0.42155690  1
  O  O129  1  0.89630578  0.35088987  0.83484699  1
  O  O130  1  0.88702021  0.30943800  0.69000354  1
  C  C131  1  0.92296643  0.33678064  0.76013778  1
  Zn  Zn132  1  0.84377929  0.08382081  0.91935339  1
  C  C133  1  0.88967026  0.78653703  0.32551568  1
  C  C134  1  0.81144221  0.78603127  0.17028661  1
  H  H135  1  0.91404441  0.81984582  0.10042247  1
  C  C136  1  0.88987265  0.80028556  0.16826727  1
  C  C137  1  0.93105989  0.79493237  0.24722175  1
  C  C138  1  0.81126972  0.77192637  0.32765244  1
  C  C139  1  0.76689268  0.80188634  0.08516179  1
  H  H140  1  0.91960942  0.80147359  0.39251802  1
  C  C141  1  0.76808638  0.78216562  0.24884502  1
  O  O142  1  0.80803988  0.81712484  0.02008449  1
  O  O143  1  0.80446038  0.71822578  0.48007882  1
  C  C144  1  0.76602609  0.74901340  0.41156989  1
  O  O145  1  0.94658965  0.79063463  0.59060297  1
  H  H146  1  0.96362058  0.82380364  0.75555079  1
  O  O147  1  0.95168278  0.86462853  0.91561961  1
  O  O148  1  0.79977196  0.82240152  0.82211129  1
  O  O149  1  0.80003340  0.77899614  0.67878745  1
  C  C150  1  0.76642022  0.78433574  0.75056596  1
  Zn  Zn151  1  0.85376714  0.50564967  0.58303070  1
