# generated using pymatgen
data_CuH11C17(NO2)2
_symmetry_space_group_name_H-M   'P 1'
_cell_length_a   8.66308153
_cell_length_b   34.43207181
_cell_length_c   17.10894717
_cell_angle_alpha   90.00000000
_cell_angle_beta   90.00000000
_cell_angle_gamma   90.00000000
_symmetry_Int_Tables_number   1
_chemical_formula_structural   CuH11C17(NO2)2
_chemical_formula_sum   'Cu16 H176 C272 N32 O64'
_cell_volume   5103.39098594
_cell_formula_units_Z   16
loop_
 _symmetry_equiv_pos_site_id
 _symmetry_equiv_pos_as_xyz
  1  'x, y, z'
loop_
 _atom_site_type_symbol
 _atom_site_label
 _atom_site_symmetry_multiplicity
 _atom_site_fract_x
 _atom_site_fract_y
 _atom_site_fract_z
 _atom_site_occupancy
  H  H0  1  0.43101062  0.08388246  0.04455959  1
  H  H1  1  0.18992692  0.13786724  0.18279809  1
  H  H2  1  0.43029332  0.24243105  0.21070123  1
  C  C3  1  0.47246859  0.10233993  0.41504393  1
  C  C4  1  0.39478135  0.17065463  0.13624038  1
  O  O5  1  0.12812214  0.05908294  0.17993108  1
  C  C6  1  0.33812388  0.10018885  0.36518380  1
  C  C7  1  0.49828551  0.12578837  0.22705751  1
  H  H8  1  0.14739571  0.13771695  0.32187585  1
  O  O9  1  0.05749472  0.06335470  0.47526726  1
  N  N10  1  0.35382960  0.21014118  0.11249216  1
  C  C11  1  0.37986481  0.24308679  0.15333140  1
  O  O12  1  0.44488354  0.03430968  0.42362257  1
  C  C13  1  0.49361663  0.17021610  0.40644045  1
  H  H14  1  0.33639490  0.14891573  0.01730996  1
  C  C15  1  0.26513498  0.13454430  0.34933990  1
  C  C16  1  0.44636928  0.16280811  0.21213880  1
  C  C17  1  0.48616284  0.09794905  0.16700967  1
  C  C18  1  0.34869469  0.16916939  0.36771531  1
  H  H19  1  0.28606670  0.07295087  0.34662546  1
  N  N20  1  0.26521653  0.20366731  0.35073470  1
  C  C21  1  0.12295414  0.20659557  0.31898679  1
  C  C22  1  0.38156501  0.14293647  0.07604169  1
  C  C23  1  0.42536216  0.10529288  0.09334454  1
  C  C24  1  0.28467136  0.21915338  0.04214169  1
  H  H25  1  0.13736956  0.20648155  0.47448193  1
  C  C26  1  0.07416874  0.14197725  0.15548987  1
  H  H27  1  0.09189303  0.20480301  0.14806166  1
  H  H28  1  0.44633110  0.18603782  0.25660171  1
  H  H29  1  0.05821950  0.17823884  0.31164174  1
  C  C30  1  0.00754293  0.06887677  0.15275912  1
  C  C31  1  0.01761475  0.17948013  0.14161259  1
  O  O32  1  0.01963723  0.04835548  0.35096968  1
  C  C33  1  0.01339095  0.07298396  0.41045562  1
  H  H34  1  0.04318210  0.11878867  0.01112150  1
  C  C35  1  0.07716362  0.24586506  0.32190256  1
  C  C36  1  0.31916547  0.24183278  0.36211228  1
  H  H37  1  0.43505851  0.24468253  0.38840968  1
  H  H38  1  0.24493513  0.19751166  0.00026154  1
  H  H39  1  0.17089072  0.16274683  0.87509392  1
  C  C40  1  0.32997136  0.10310827  0.67051290  1
  C  C41  1  0.16439465  0.22681006  0.52328355  1
  H  H42  1  0.19937685  0.14699042  0.50631690  1
  C  C43  1  0.28803873  0.15275043  0.88711331  1
  H  H44  1  0.25194992  0.08866012  0.89539775  1
  H  H45  1  0.29156233  0.23904976  0.69932968  1
  N  N46  1  0.36053076  0.22199930  0.86490599  1
  C  C47  1  0.40241848  0.18163535  0.87886439  1
  C  C48  1  0.24993453  0.24500987  0.63859867  1
  H  H49  1  0.24091342  0.07862450  0.56089125  1
  C  C50  1  0.26081842  0.17370542  0.61646788  1
  C  C51  1  0.21252775  0.23275267  0.84313169  1
  C  C52  1  0.32841172  0.17014938  0.69167107  1
  O  O53  1  0.03586940  0.04834842  0.96203990  1
  H  H54  1  0.41089547  0.12786771  0.77850769  1
  H  H55  1  0.03040631  0.13662896  0.66211126  1
  H  H56  1  0.34643680  0.19589195  0.72839489  1
  C  C57  1  0.35439413  0.13403194  0.72226813  1
  H  H58  1  0.12912980  0.21010148  0.83427917  1
  O  O59  1  0.32310994  0.03398959  0.66345721  1
  N  N60  1  0.23649251  0.21360937  0.59095725  1
  C  C61  1  0.26643920  0.10535261  0.59505076  1
  C  C62  1  0.22217626  0.14206642  0.56703603  1
  C  C63  1  0.33024319  0.11343620  0.89806365  1
  C  C64  1  0.48327966  0.10624279  0.91677025  1
  O  O65  1  0.45741804  0.05924607  0.75783208  1
  C  C66  1  0.36822749  0.06277832  0.69980087  1
  H  H67  1  0.47589556  0.22417532  0.54964421  1
  O  O68  1  0.45847959  0.03542624  0.90443961  1
  H  H69  1  0.04133341  0.36474588  0.05743123  1
  C  C70  1  0.33141827  0.34105400  0.07355524  1
  C  C71  1  0.05466514  0.32926220  0.35039284  1
  O  O72  1  0.30713294  0.44881698  0.41560322  1
  C  C73  1  0.16870755  0.43125233  0.40413600  1
  H  H74  1  0.33829755  0.30392294  0.26534709  1
  H  H75  1  0.41078665  0.38217584  0.43812953  1
  C  C76  1  0.34877220  0.37943936  0.09355235  1
  N  N77  1  0.19950239  0.26706234  0.35136959  1
  O  O78  1  0.34555646  0.45935842  0.14504069  1
  C  C79  1  0.36934203  0.36467392  0.23323750  1
  C  C80  1  0.31323251  0.36697351  0.41368251  1
  C  C81  1  0.34486103  0.32560757  0.21731740  1
  C  C82  1  0.36808873  0.43249431  0.19509710  1
  C  C83  1  0.19378534  0.30871704  0.36320600  1
  C  C84  1  0.32750944  0.32747930  0.39534303  1
  H  H85  1  0.34540121  0.40308246  0.05109656  1
  N  N86  1  0.32148008  0.27379809  0.11131484  1
  O  O87  1  0.38307458  0.43811075  0.26713187  1
  H  H88  1  0.38840779  0.37475631  0.29624994  1
  C  C89  1  0.36270465  0.39176894  0.17045439  1
  Cu  Cu90  1  0.14669183  0.47688056  0.09996307  1
  Cu  Cu91  1  0.39498754  0.48042551  0.33607516  1
  H  H92  1  0.43361303  0.31103591  0.40156761  1
  C  C93  1  0.32610992  0.31317611  0.13779094  1
  C  C94  1  0.05403854  0.36977585  0.35902988  1
  C  C95  1  0.18001706  0.38810408  0.39109686  1
  H  H96  1  0.08820369  0.28503218  0.48433344  1
  H  H97  1  0.10194960  0.38991267  0.19637094  1
  C  C98  1  0.25619375  0.25883025  0.04356521  1
  O  O99  1  0.02154235  0.45772224  0.18771163  1
  H  H100  1  0.30543314  0.33599261  0.01407325  1
  O  O101  1  0.05111392  0.44844023  0.41734741  1
  H  H102  1  0.05958440  0.31682840  0.17666998  1
  O  O103  1  0.10218606  0.43266720  0.04371449  1
  N  N104  1  0.19895401  0.27806245  0.60109502  1
  C  C105  1  0.20693337  0.27347379  0.84411956  1
  H  H106  1  0.12378826  0.33919483  0.50953910  1
  C  C107  1  0.31317071  0.36544972  0.71076838  1
  Cu  Cu108  1  0.36527427  0.48882121  0.80062802  1
  H  H109  1  0.25401870  0.41829663  0.87947241  1
  H  H110  1  0.15246927  0.41051328  0.55012145  1
  C  C111  1  0.25245035  0.43385618  0.68988998  1
  H  H112  1  0.10671033  0.29413038  0.84106998  1
  C  C113  1  0.16107237  0.34685944  0.56758671  1
  C  C114  1  0.28316119  0.35675874  0.88230105  1
  C  C115  1  0.20139798  0.31818748  0.62706334  1
  O  O116  1  0.32821412  0.44079168  0.75240522  1
  C  C117  1  0.18274810  0.38509014  0.58858786  1
  H  H118  1  0.38486290  0.37482722  0.75903454  1
  C  C119  1  0.33338352  0.39484749  0.88788640  1
  C  C120  1  0.28305940  0.32676021  0.69619161  1
  O  O121  1  0.45957947  0.46859974  0.89040898  1
  C  C122  1  0.49021432  0.40174626  0.90771406  1
  C  C123  1  0.38802157  0.32476129  0.89318960  1
  O  O124  1  0.16917939  0.45787968  0.65226987  1
  C  C125  1  0.25095931  0.39506351  0.66311277  1
  H  H126  1  0.30577141  0.30171912  0.73455146  1
  N  N127  1  0.34820844  0.28563345  0.87210860  1
  C  C128  1  0.02986514  0.43136810  0.98067587  1
  H  H129  1  0.45018205  0.30286409  0.56622562  1
  H  H130  1  0.15834944  0.35253237  0.87160754  1
  C  C131  1  0.14804971  0.26709337  0.52792991  1
  O  O132  1  0.01035469  0.46123480  0.93950296  1
  H  H133  1  0.21472362  0.27763797  0.99695648  1
  H  H134  1  0.48284224  0.35292287  0.60270100  1
  C  C135  1  0.44298719  0.25406733  0.88457501  1
  H  H136  1  0.30802723  0.66202230  0.17259714  1
  C  C137  1  0.18894865  0.73144131  0.20620201  1
  H  H138  1  0.11070759  0.61465122  0.35147779  1
  H  H139  1  0.29183675  0.59093362  0.15856953  1
  C  C140  1  0.18975298  0.60900801  0.14847473  1
  C  C141  1  0.35960419  0.74874983  0.40435078  1
  H  H142  1  0.28746530  0.71502194  0.23037982  1
  O  O143  1  0.15272555  0.52767548  0.14092684  1
  H  H144  1  0.15709721  0.68428358  0.37545483  1
  C  C145  1  0.22759338  0.62436910  0.37073774  1
  C  C146  1  0.03943891  0.54985439  0.13085330  1
  C  C147  1  0.06479400  0.67282364  0.15053824  1
  C  C148  1  0.19635364  0.64961592  0.15766008  1
  O  O149  1  0.16114594  0.54742942  0.37822752  1
  C  C150  1  0.34775905  0.59646453  0.38611828  1
  C  C151  1  0.30342560  0.55533008  0.38067306  1
  C  C152  1  0.39944972  0.67515566  0.40950745  1
  Cu  Cu153  1  0.01581330  0.54739876  0.47219911  1
  C  C154  1  0.24966300  0.66372483  0.37996930  1
  N  N155  1  0.06766074  0.71308450  0.16802187  1
  O  O156  1  0.39915779  0.52798193  0.38529291  1
  C  C157  1  0.04416906  0.59272825  0.13104427  1
  N  N158  1  0.43006601  0.71479618  0.42894702  1
  H  H159  1  0.02364867  0.65030119  0.00728482  1
  H  H160  1  0.25085915  0.74912895  0.37274977  1
  C  C161  1  0.49489949  0.60750782  0.40689474  1
  H  H162  1  0.29891349  0.61619473  0.49987201  1
  H  H163  1  0.03405907  0.58235922  0.96451916  1
  Cu  Cu164  1  0.06398813  0.50235681  0.69086365  1
  H  H165  1  0.16005282  0.71442108  0.67901619  1
  C  C166  1  0.40501074  0.65014366  0.92755234  1
  C  C167  1  0.22281596  0.56065091  0.60008577  1
  H  H168  1  0.36195866  0.65060559  0.78265627  1
  H  H169  1  0.30705482  0.66130246  0.95847974  1
  C  C170  1  0.34043033  0.64556851  0.72032226  1
  O  O171  1  0.39353838  0.53803862  0.83577646  1
  H  H172  1  0.35914687  0.68539293  0.53779132  1
  O  O173  1  0.19490519  0.55031127  0.53179179  1
  C  C174  1  0.28427074  0.59913259  0.61825357  1
  H  H175  1  0.28311412  0.58561166  0.74460389  1
  C  C176  1  0.35116947  0.66409469  0.58326137  1
  H  H177  1  0.10967264  0.67226761  0.61731803  1
  H  H178  1  0.27680857  0.59688444  0.89417085  1
  C  C179  1  0.06621880  0.73501948  0.66224159  1
  C  C180  1  0.29758738  0.60806388  0.69863485  1
  H  H181  1  0.39108660  0.74198684  0.57941457  1
  O  O182  1  0.22337937  0.53616655  0.65695173  1
  C  C183  1  0.31115631  0.62691371  0.56073679  1
  H  H184  1  0.03114860  0.60071055  0.58065964  1
  C  C185  1  0.38867123  0.61327798  0.89645892  1
  H  H186  1  0.42304379  0.70495007  0.81476275  1
  H  H187  1  0.01636394  0.72556941  0.51876441  1
  C  C188  1  0.40382698  0.74551025  0.64409083  1
  C  C189  1  0.37799073  0.72803679  0.95833518  1
  C  C190  1  0.37178269  0.67392405  0.66350343  1
  H  H191  1  0.27886606  0.70871592  0.96794746  1
  C  C192  1  0.41357900  0.72548324  0.76643595  1
  N  N193  1  0.39751377  0.71330633  0.69098240  1
  C  C194  1  0.02221692  0.64402178  0.94568208  1
  H  H195  1  0.10494761  0.74659586  0.80174830  1
  C  C196  1  0.00363256  0.62375505  0.78513836  1
  C  C197  1  0.06791988  0.74672402  0.86354157  1
  N  N198  1  0.02513244  0.71401867  0.90693471  1
  C  C199  1  0.02988633  0.67428234  0.88741016  1
  H  H200  1  0.02803288  0.68348091  0.76122828  1
  C  C201  1  0.02138125  0.60550754  0.92191649  1
  C  C202  1  0.00426081  0.59438952  0.84147042  1
  C  C203  1  0.02629198  0.66255257  0.80767800  1
  C  C204  1  0.35239492  0.93119676  0.09281187  1
  O  O205  1  0.27269016  0.93458165  0.03475762  1
  H  H206  1  0.27715536  0.86579700  0.02321624  1
  C  C207  1  0.28669926  0.93641173  0.36325334  1
  C  C208  1  0.40686835  0.81900453  0.39962154  1
  Cu  Cu209  1  0.41789901  0.98779781  0.47464322  1
  C  C210  1  0.24882264  0.82808557  0.37486548  1
  C  C211  1  0.39036124  0.89163643  0.12669526  1
  C  C212  1  0.21475740  0.86621672  0.36382659  1
  O  O213  1  0.15158313  0.94545540  0.34124861  1
  C  C214  1  0.48034124  0.88643645  0.39730746  1
  H  H215  1  0.15976083  0.80448298  0.37414389  1
  C  C216  1  0.05319747  0.84929289  0.15785361  1
  H  H217  1  0.08728782  0.91201760  0.14420973  1
  C  C218  1  0.38349375  0.82242278  0.09848400  1
  H  H219  1  0.09318110  0.87458632  0.35021268  1
  H  H220  1  0.17291888  0.84611674  0.17798817  1
  H  H221  1  0.22913769  0.79482997  0.22874826  1
  N  N222  1  0.44445257  0.78008109  0.42279940  1
  O  O223  1  0.39328806  0.96095557  0.37002086  1
  C  C224  1  0.44292447  0.88759129  0.20243180  1
  C  C225  1  0.16516430  0.77081169  0.20305862  1
  H  H226  1  0.35184165  0.79800340  0.06296190  1
  C  C227  1  0.32819839  0.89558414  0.37596829  1
  O  O228  1  0.40486345  0.96058128  0.13236448  1
  C  C229  1  0.34378594  0.86015493  0.07781626  1
  N  N230  1  0.02257278  0.77710558  0.16461093  1
  Cu  Cu231  1  0.07800427  0.99785471  0.34331852  1
  C  C232  1  0.46665574  0.81762867  0.17210964  1
  H  H233  1  0.44618538  0.91451754  0.23780683  1
  C  C234  1  0.01705434  0.88652445  0.13489205  1
  C  C235  1  0.47340937  0.84921042  0.22558321  1
  C  C236  1  0.46281203  0.84587562  0.72052822  1
  C  C237  1  0.03357049  0.89546364  0.60627851  1
  H  H238  1  0.36837455  0.80708364  0.53813174  1
  O  O239  1  0.37904307  0.94385595  0.53242373  1
  H  H240  1  0.19201279  0.79006851  0.64634954  1
  O  O241  1  0.07269192  0.96006949  0.86452025  1
  H  H242  1  0.29956073  0.79060712  0.96084041  1
  H  H243  1  0.19736227  0.80558029  0.77415959  1
  C  C244  1  0.04543427  0.85606193  0.61882788  1
  H  H245  1  0.35487462  0.87830650  0.50765973  1
  Cu  Cu246  1  0.25231367  0.98846928  0.71122260  1
  C  C247  1  0.38280677  0.86869982  0.56533716  1
  C  C248  1  0.42839827  0.81800771  0.66024681  1
  C  C249  1  0.40950515  0.89601211  0.62449962  1
  C  C250  1  0.08084848  0.77378317  0.65042927  1
  H  H251  1  0.13712032  0.91341450  0.60918307  1
  C  C252  1  0.40349974  0.93700203  0.60414006  1
  O  O253  1  0.18848224  0.94441851  0.75780699  1
  C  C254  1  0.03773030  0.88505720  0.91925253  1
  H  H255  1  0.47741530  0.90512500  0.75052649  1
  C  C256  1  0.09540291  0.81739628  0.88575525  1
  H  H257  1  0.36254877  0.90426734  0.90465285  1
  C  C258  1  0.16438974  0.82918783  0.81334897  1
  H  H259  1  0.01124814  0.80524451  0.51463089  1
  H  H260  1  0.32998102  0.83617455  0.93363723  1
  H  H261  1  0.15879588  0.84413155  0.61598246  1
  C  C262  1  0.39837831  0.82883370  0.58164290  1
  C  C263  1  0.17843341  0.86848504  0.79361908  1
  C  C264  1  0.38720380  0.76779267  0.95708177  1
  O  O265  1  0.41365902  0.96263103  0.65696483  1
  C  C266  1  0.45620729  0.88485544  0.70248925  1
  N  N267  1  0.42208998  0.77771776  0.68871118  1
  C  C268  1  0.10961305  0.89377535  0.84893017  1
  H  H269  1  0.21066631  0.87788674  0.73325977  1
  C  C270  1  0.12179551  0.93491385  0.82117450  1
  C  C271  1  0.44323758  0.76490889  0.76580145  1
  C  C272  1  0.44604777  0.84556017  0.91877093  1
  C  C273  1  0.45948185  0.88427350  0.90222249  1
  H  H274  1  0.48306915  0.78400028  0.81623741  1
  O  O275  1  0.00237090  0.97275750  0.57869319  1
  H  H276  1  0.47451362  0.83657038  0.78082109  1
  C  C277  1  0.03045156  0.84539533  0.93528392  1
  N  N278  1  0.05679557  0.77791595  0.90969368  1
  C  C279  1  0.00426913  0.76647652  0.98387538  1
  C  C280  1  0.96906815  0.11109419  0.14052937  1
  H  H281  1  0.64922833  0.15818005  0.06882269  1
  O  O282  1  0.89838395  0.04147419  0.13696363  1
  H  H283  1  0.68277201  0.21144996  0.22596263  1
  C  C284  1  0.95284734  0.11162166  0.39700257  1
  N  N285  1  0.74821857  0.22100048  0.34587722  1
  H  H286  1  0.76098339  0.15634204  0.24903921  1
  H  H287  1  0.66582046  0.13429422  0.46861542  1
  C  C288  1  0.89600320  0.11834869  0.32032049  1
  C  C289  1  0.52602910  0.06464824  0.44339225  1
  H  H290  1  0.59618831  0.21002659  0.02846414  1
  N  N291  1  0.81415750  0.22162459  0.09814794  1
  C  C292  1  0.54263907  0.05637387  0.17537560  1
  C  C293  1  0.81814888  0.11345210  0.11075309  1
  C  C294  1  0.82087326  0.18464796  0.36125749  1
  H  H295  1  0.86382147  0.19687725  0.48613957  1
  C  C296  1  0.68822972  0.23099946  0.27248686  1
  C  C297  1  0.87415587  0.17560122  0.43845671  1
  C  C298  1  0.81648693  0.15362530  0.30581106  1
  C  C299  1  0.94177599  0.14081645  0.45690094  1
  H  H300  1  0.90340741  0.09607463  0.27647281  1
  H  H301  1  0.74763794  0.08758625  0.10130687  1
  C  C302  1  0.76726399  0.15079279  0.08886099  1
  C  C303  1  0.86741785  0.18292004  0.10821573  1
  H  H304  1  0.55038660  0.11709095  0.28371324  1
  O  O305  1  0.60638791  0.04429652  0.23256341  1
  C  C306  1  0.68224872  0.23227022  0.05785392  1
  H  H307  1  0.55378742  0.19613185  0.41895940  1
  O  O308  1  0.64403423  0.06160696  0.48403011  1
  C  C309  1  0.56047245  0.13495507  0.43033336  1
  O  O310  1  0.52069998  0.03348531  0.11657683  1
  H  H311  1  0.71725693  0.12898926  0.93821958  1
  C  C312  1  0.89538786  0.11376582  0.82291590  1
  C  C313  1  0.91067823  0.14212840  0.64459340  1
  C  C314  1  0.53692182  0.06353793  0.92912094  1
  H  H315  1  0.64620018  0.19559324  0.87788550  1
  C  C316  1  0.65140924  0.12263069  0.60075971  1
  H  H317  1  0.56465178  0.09874402  0.59392664  1
  C  C318  1  0.96082895  0.16880633  0.94410614  1
  C  C319  1  0.88624049  0.18009405  0.87356556  1
  N  N320  1  0.70115167  0.23231597  0.59380625  1
  C  C321  1  0.84266536  0.07119519  0.64247620  1
  C  C322  1  0.59652718  0.13635685  0.91868131  1
  H  H323  1  0.79783790  0.16137078  0.75837514  1
  H  H324  1  0.86833118  0.09115814  0.77997824  1
  N  N325  1  0.85093771  0.22034550  0.85779071  1
  O  O326  1  0.72390200  0.04541255  0.63598586  1
  C  C327  1  0.56222395  0.17355491  0.89242995  1
  C  C328  1  0.88180736  0.18069519  0.62542331  1
  C  C329  1  0.85744107  0.15248655  0.81235098  1
  C  C330  1  0.80079739  0.11226143  0.62824115  1
  O  O331  1  0.66613313  0.06104835  0.95558433  1
  C  C332  1  0.79863858  0.23414017  0.78806970  1
  Cu  Cu333  1  0.68867417  0.01824686  0.54282512  1
  C  C334  1  0.61690354  0.16137416  0.58689132  1
  C  C335  1  0.72878273  0.19164920  0.60054386  1
  O  O336  1  0.96697102  0.06248472  0.66308061  1
  H  H337  1  0.77498095  0.21263887  0.73961467  1
  C  C338  1  0.56258321  0.24427527  0.56095736  1
  H  H339  1  0.96880343  0.13353997  0.51599156  1
  H  H340  1  0.50344791  0.16963430  0.57064784  1
  C  C341  1  0.94914526  0.10292553  0.89727186  1
  H  H342  1  0.98875898  0.19245829  0.98367350  1
  C  C343  1  0.98764501  0.12921298  0.95803341  1
  O  O344  1  0.98063251  0.03549723  0.84079251  1
  Cu  Cu345  1  0.50227278  0.00874063  0.80573361  1
  C  C346  1  0.98939780  0.06100259  0.90147001  1
  H  H347  1  0.97604284  0.20217972  0.62710949  1
  C  C348  1  0.71066942  0.37661288  0.46574118  1
  H  H349  1  0.60843956  0.29156434  0.23050976  1
  H  H350  1  0.96077017  0.25834887  0.30320856  1
  C  C351  1  0.64458026  0.44421265  0.43064703  1
  C  C352  1  0.68027433  0.27169686  0.06129961  1
  O  O353  1  0.60435754  0.46688988  0.37734078  1
  C  C354  1  0.67527704  0.35395600  0.30941358  1
  C  C355  1  0.89001103  0.44388307  0.17127230  1
  C  C356  1  0.82351916  0.32632765  0.13060916  1
  O  O357  1  0.77125145  0.46510777  0.17102455  1
  C  C358  1  0.69319932  0.35141209  0.11940114  1
  C  C359  1  0.65571904  0.39157049  0.33037873  1
  H  H360  1  0.64776996  0.41413073  0.28690501  1
  H  H361  1  0.60891137  0.40939728  0.13493319  1
  C  C362  1  0.65064511  0.27082194  0.27476837  1
  C  C363  1  0.86200661  0.40309149  0.15630401  1
  C  C364  1  0.70937333  0.39028986  0.13748186  1
  H  H365  1  0.58994625  0.29251004  0.04150693  1
  H  H366  1  0.58322501  0.33680755  0.10673816  1
  H  H367  1  0.79914011  0.25713892  0.44933411  1
  C  C368  1  0.69655865  0.32463823  0.37010377  1
  N  N369  1  0.79933800  0.28664785  0.10822919  1
  C  C370  1  0.72778171  0.33718681  0.44884845  1
  N  N371  1  0.69409387  0.28433943  0.34878180  1
  H  H372  1  0.94440903  0.31454854  0.33554795  1
  C  C373  1  0.66927730  0.40356622  0.41045684  1
  H  H374  1  0.67174337  0.34747506  0.24659158  1
  H  H375  1  0.95170731  0.38728098  0.34133162  1
  C  C376  1  0.88233295  0.25501382  0.12941431  1
  H  H377  1  0.93765125  0.30100517  0.00972119  1
  C  C378  1  0.99177834  0.37808916  0.17369920  1
  C  C379  1  0.96881655  0.33854792  0.16375350  1
  C  C380  1  0.74736332  0.25408587  0.39043519  1
  H  H381  1  0.76349529  0.31748309  0.49625866  1
  H  H382  1  0.98015591  0.25705241  0.16852917  1
  H  H383  1  0.73709015  0.38574168  0.52561674  1
  C  C384  1  0.59428718  0.36285998  0.61981769  1
  H  H385  1  0.51642899  0.41944614  0.63520039  1
  C  C386  1  0.78424231  0.45708172  0.67888809  1
  O  O387  1  0.90575568  0.46715500  0.71184646  1
  C  C388  1  0.54312400  0.33282491  0.91568205  1
  C  C389  1  0.79169069  0.27490403  0.79417420  1
  H  H390  1  0.76385025  0.29783758  0.75386629  1
  N  N391  1  0.83957911  0.28409639  0.86911116  1
  O  O392  1  0.67464105  0.47963917  0.65851986  1
  C  C393  1  0.71647148  0.33569907  0.63494846  1
  C  C394  1  0.87097130  0.35566815  0.84298717  1
  C  C395  1  0.61745749  0.40151650  0.63405032  1
  C  C396  1  0.78292940  0.26607924  0.61029985  1
  C  C397  1  0.87949167  0.32321513  0.89471273  1
  O  O398  1  0.69213065  0.44519639  0.92077550  1
  C  C399  1  0.86592475  0.34741188  0.65775402  1
  N  N400  1  0.68615874  0.29628416  0.61117983  1
  C  C401  1  0.54952984  0.28362749  0.57300903  1
  C  C402  1  0.93470603  0.39011095  0.86723027  1
  C  C403  1  0.59327550  0.36979028  0.92300643  1
  H  H404  1  0.90886642  0.27074583  0.63089407  1
  H  H405  1  0.95001172  0.32455712  0.66483216  1
  H  H406  1  0.81599384  0.35402151  0.78484840  1
  H  H407  1  0.70968286  0.37539366  0.94814343  1
  C  C408  1  0.75929479  0.41531165  0.66329058  1
  C  C409  1  0.88109958  0.38746111  0.66986060  1
  H  H410  1  0.94108634  0.41599801  0.82967649  1
  H  H411  1  0.92289311  0.25078824  0.96402530  1
  C  C412  1  0.54819169  0.44021955  0.90688362  1
  Cu  Cu413  1  0.83065333  0.48724191  0.90103420  1
  H  H414  1  0.63608091  0.30956513  0.92595345  1
  C  C415  1  0.93947708  0.32602323  0.97186348  1
  H  H416  1  0.99438650  0.39978116  0.68511136  1
  C  C417  1  0.98565841  0.39379118  0.94508844  1
  Cu  Cu418  1  0.64837968  0.49926908  0.55309728  1
  C  C419  1  0.87700661  0.25158699  0.90722142  1
  C  C420  1  0.99274508  0.36214737  0.99809805  1
  H  H421  1  0.56527596  0.25517442  0.90647820  1
  O  O422  1  0.66825025  0.45393964  0.50089777  1
  C  C423  1  0.54912034  0.55757031  0.11103957  1
  Cu  Cu424  1  0.78306783  0.51744363  0.20738670  1
  O  O425  1  0.84831144  0.54638754  0.40323742  1
  C  C426  1  0.84136304  0.57012553  0.34608585  1
  O  O427  1  0.83435057  0.56204551  0.27626437  1
  C  C428  1  0.87240493  0.63819756  0.29949914  1
  H  H429  1  0.81997630  0.67409684  0.11837469  1
  C  C430  1  0.55279765  0.66712572  0.09430473  1
  C  C431  1  0.56365558  0.67658823  0.17489854  1
  C  C432  1  0.52100212  0.64769511  0.41913161  1
  C  C433  1  0.98649705  0.74469652  0.47069353  1
  H  H434  1  0.56778281  0.58685235  0.26096234  1
  H  H435  1  0.63400314  0.65900573  0.43524093  1
  C  C436  1  0.88970143  0.67780076  0.30829374  1
  C  C437  1  0.55362189  0.64752241  0.23342122  1
  C  C438  1  0.85984021  0.61234013  0.36343528  1
  C  C439  1  0.91921066  0.65547725  0.12997935  1
  C  C440  1  0.91026013  0.61605726  0.12085718  1
  H  H441  1  0.53349582  0.65773096  0.29676197  1
  C  C442  1  0.56523544  0.72668172  0.46655321  1
  H  H443  1  0.86098621  0.62425353  0.24208136  1
  C  C444  1  0.89670424  0.66669663  0.45230428  1
  C  C445  1  0.86643223  0.62713365  0.43940688  1
  H  H446  1  0.95686050  0.70437818  0.02534917  1
  H  H447  1  0.80200792  0.60124561  0.10635049  1
  H  H448  1  0.85512755  0.60943046  0.49216254  1
  O  O449  1  0.90467642  0.53593601  0.11962487  1
  N  N450  1  0.56676371  0.71692276  0.19561323  1
  H  H451  1  0.62238543  0.71060121  0.32235254  1
  O  O452  1  0.58368553  0.53498198  0.17382519  1
  H  H453  1  0.57692609  0.58443104  0.42144163  1
  H  H454  1  0.85494679  0.74108441  0.11758921  1
  H  H455  1  0.88154885  0.69869416  0.25735797  1
  C  C456  1  0.59243196  0.73028499  0.26970885  1
  N  N457  1  0.92530365  0.73232547  0.39973790  1
  C  C458  1  0.55360887  0.59940496  0.13543871  1
  C  C459  1  0.90614872  0.69151887  0.38491882  1
  C  C460  1  0.56653242  0.60893037  0.21517078  1
  O  O461  1  0.52230920  0.54248408  0.05023663  1
  C  C462  1  0.55435390  0.62747968  0.07550471  1
  H  H463  1  0.53600606  0.69238915  0.05156986  1
  H  H464  1  0.55250562  0.62039058  0.01336207  1
  C  C465  1  0.96230462  0.74259662  0.15088487  1
  H  H466  1  0.50484855  0.74870327  0.08642659  1
  C  C467  1  0.52931442  0.74825502  0.14927261  1
  H  H468  1  0.65094269  0.70760085  0.49478921  1
  N  N469  1  0.90889946  0.72497450  0.65693510  1
  O  O470  1  0.96792379  0.53099199  0.88309040  1
  O  O471  1  0.63484784  0.54573209  0.80009001  1
  C  C472  1  0.66767121  0.61973081  0.84889802  1
  H  H473  1  0.62169682  0.68874964  0.67450853  1
  C  C474  1  0.79211635  0.61064165  0.59938709  1
  H  H475  1  0.77649087  0.67682099  0.86673948  1
  C  C476  1  0.67272214  0.63449301  0.61974276  1
  H  H477  1  0.98197245  0.61847742  0.72069194  1
  O  O478  1  0.88988808  0.54663721  0.56540859  1
  C  C479  1  0.77620250  0.56896427  0.58107804  1
  H  H480  1  0.55250974  0.62435359  0.62021521  1
  C  C481  1  0.67055951  0.65848037  0.87564850  1
  O  O482  1  0.64172458  0.55473502  0.57624231  1
  C  C483  1  0.94841777  0.62415579  0.59954645  1
  C  C484  1  0.98471709  0.55362227  0.82584800  1
  C  C485  1  0.71427175  0.67009767  0.65129242  1
  H  H486  1  0.76277276  0.60459480  0.81578929  1
  C  C487  1  0.86554373  0.68539209  0.64729529  1
  C  C488  1  0.61618097  0.74614095  0.93103270  1
  H  H489  1  0.73477384  0.74220729  0.91333998  1
  C  C490  1  0.99177491  0.66156643  0.62036271  1
  C  C491  1  0.98221137  0.72696740  0.97960983  1
  O  O492  1  0.97951251  0.54229662  0.75557023  1
  C  C493  1  0.52611146  0.59988796  0.85818941  1
  C  C494  1  0.54163698  0.67409095  0.91559646  1
  N  N495  1  0.51760332  0.71380457  0.93244060  1
  H  H496  1  0.89694392  0.67691917  0.51158776  1
  C  C497  1  0.52075355  0.56010126  0.82601602  1
  H  H498  1  0.63061234  0.83774942  0.43811302  1
  C  C499  1  0.90409910  0.76283309  0.34900013  1
  C  C500  1  0.87793418  0.83365555  0.37728613  1
  H  H501  1  0.81129696  0.82096052  0.25696929  1
  N  N502  1  0.92092299  0.79442817  0.39632840  1
  C  C503  1  0.82283909  0.94907773  0.32075915  1
  Cu  Cu504  1  0.59262098  0.98466362  0.09192308  1
  C  C505  1  0.81111317  0.82275538  0.11554115  1
  C  C506  1  0.83667827  0.90900881  0.34068289  1
  C  C507  1  0.57171653  0.77146388  0.27003478  1
  H  H508  1  0.73139965  0.79890957  0.11421886  1
  C  C509  1  0.81121898  0.88100652  0.28250312  1
  H  H510  1  0.89008013  0.92407285  0.46312747  1
  C  C511  1  0.52245781  0.84721511  0.40814069  1
  H  H512  1  0.58192109  0.79230733  0.31995227  1
  C  C513  1  0.96480486  0.81533199  0.14783303  1
  H  H514  1  0.65564564  0.86581839  0.06767869  1
  H  H515  1  0.79188692  0.88838308  0.22376453  1
  O  O516  1  0.69389029  0.93989349  0.06059529  1
  O  O517  1  0.90605946  0.96158859  0.11048828  1
  Cu  Cu518  1  0.85971521  0.99572885  0.19048348  1
  C  C519  1  0.87945775  0.90078383  0.41849824  1
  C  C520  1  0.76859004  0.85944306  0.09190701  1
  H  H521  1  0.84921722  0.76157847  0.29340968  1
  C  C522  1  0.82302435  0.93235136  0.09264656  1
  O  O523  1  0.77257799  0.95965916  0.25126209  1
  C  C524  1  0.86411881  0.89192944  0.10934972  1
  C  C525  1  0.82799313  0.84230849  0.30049877  1
  O  O526  1  0.87504762  0.97630382  0.36210451  1
  H  H527  1  0.55908552  0.91072483  0.40882905  1
  C  C528  1  0.57472324  0.76636980  0.46524107  1
  H  H529  1  0.92571255  0.85640426  0.49857013  1
  H  H530  1  0.50908336  0.84412098  0.28595824  1
  C  C531  1  0.89158721  0.86280133  0.43971768  1
  N  N532  1  0.52762568  0.78079676  0.19608321  1
  H  H533  1  0.99589657  0.78568312  0.03438960  1
  C  C534  1  0.97981715  0.78416811  0.46853506  1
  H  H535  1  0.66025807  0.78693512  0.48977169  1
  O  O536  1  0.77824269  0.94591853  0.83480879  1
  Cu  Cu537  1  0.88401402  0.98808752  0.84470535  1
  C  C538  1  0.64168556  0.93546786  0.85371725  1
  N  N539  1  0.53094771  0.77981971  0.93204610  1
  N  N540  1  0.93464641  0.79051101  0.64278518  1
  H  H541  1  0.64563402  0.90531065  0.61336478  1
  C  C542  1  0.88356008  0.95461181  0.59144725  1
  C  C543  1  0.83494714  0.75909394  0.64707873  1
  H  H544  1  0.84195680  0.88025675  0.84133090  1
  C  C545  1  0.88520509  0.91229180  0.60703022  1
  C  C546  1  0.76416219  0.84994671  0.63803460  1
  C  C547  1  0.72506004  0.83014201  0.88861351  1
  O  O548  1  0.75416836  0.97367358  0.59236954  1
  C  C549  1  0.91399589  0.83132100  0.63433247  1
  C  C550  1  0.75036384  0.88876774  0.61654966  1
  H  H551  1  0.82707501  0.80984257  0.88389846  1
  H  H552  1  0.66387347  0.83011461  0.65190702  1
  C  C553  1  0.72945162  0.86887682  0.86257390  1
  C  C554  1  0.60938278  0.89550742  0.87604698  1
  H  H555  1  0.99720654  0.90837200  0.95837137  1
  H  H556  1  0.70531990  0.75906844  0.65104320  1
  O  O557  1  0.53261313  0.95979349  0.85579210  1
  C  C558  1  0.57546624  0.81933780  0.92012308  1
  H  H559  1  0.97676696  0.83369973  0.98900023  1
