# generated using pymatgen
data_Zn3H6C18O13
_symmetry_space_group_name_H-M   'P 1'
_cell_length_a   12.54362928
_cell_length_b   23.74597423
_cell_length_c   16.56471838
_cell_angle_alpha   90.00000000
_cell_angle_beta   90.00000000
_cell_angle_gamma   90.00000000
_symmetry_Int_Tables_number   1
_chemical_formula_structural   Zn3H6C18O13
_chemical_formula_sum   'Zn24 H48 C144 O104'
_cell_volume   4933.97857097
_cell_formula_units_Z   8
loop_
 _symmetry_equiv_pos_site_id
 _symmetry_equiv_pos_as_xyz
  1  'x, y, z'
loop_
 _atom_site_type_symbol
 _atom_site_label
 _atom_site_symmetry_multiplicity
 _atom_site_fract_x
 _atom_site_fract_y
 _atom_site_fract_z
 _atom_site_occupancy
  C  C0  1  0.21638849  0.10710532  0.26269792  1
  C  C1  1  0.30096830  0.07886967  0.22445136  1
  O  O2  1  0.04810158  0.15320899  0.34855381  1
  C  C3  1  0.23054594  0.13399144  0.33567893  1
  O  O4  1  0.20340883  0.05963215  0.11019895  1
  H  H5  1  0.13709710  0.10712374  0.24114240  1
  O  O6  1  0.48609965  0.15512639  0.07518023  1
  O  O7  1  0.14988023  0.19633758  0.43550150  1
  C  C8  1  0.41916158  0.11084689  0.32981504  1
  C  C9  1  0.33366948  0.13722666  0.36825237  1
  H  H10  1  0.34598395  0.15857850  0.42617736  1
  C  C11  1  0.40226598  0.08258607  0.25877265  1
  C  C12  1  0.29291091  0.05430583  0.14206817  1
  C  C13  1  0.13745931  0.16090253  0.38056634  1
  O  O14  1  0.37094891  0.02579585  0.11477243  1
  O  O15  1  0.13526493  0.01838575  0.43925054  1
  C  C16  1  0.09302083  0.21717503  0.12562713  1
  O  O17  1  0.07282242  0.21211939  0.05524564  1
  O  O18  1  0.02946485  0.19057507  0.18359043  1
  H  H19  1  0.05664425  0.21036811  0.23453532  1
  C  C20  1  0.19190512  0.24780627  0.14519499  1
  Zn  Zn21  1  0.00162938  0.05444473  0.49454544  1
  O  O22  1  0.46742506  0.08566469  0.75994561  1
  O  O23  1  0.14293768  0.21884994  0.74149400  1
  C  C24  1  0.00492616  0.09177632  0.86739092  1
  O  O25  1  0.02550788  0.12952683  0.56873302  1
  C  C26  1  0.45551134  0.13720744  0.74163760  1
  Zn  Zn27  1  0.33637124  0.18641288  0.90684656  1
  O  O28  1  0.09255185  0.07418737  0.84271929  1
  H  H29  1  0.03467473  0.09603591  0.70445854  1
  O  O30  1  0.39493280  0.16801963  0.78142617  1
  O  O31  1  0.21889564  0.13498008  0.96363595  1
  H  H32  1  0.46071230  0.24760576  0.70391315  1
  O  O33  1  0.21002923  0.23965807  0.85927998  1
  Zn  Zn34  1  0.16584820  0.05991185  0.98108144  1
  H  H35  1  0.15150827  0.15070430  0.95315243  1
  O  O36  1  0.49058008  0.15789320  0.94259371  1
  C  C37  1  0.49756386  0.22124489  0.65610184  1
  O  O38  1  0.31895969  0.30704336  0.38114856  1
  Zn  Zn39  1  0.14265072  0.28518829  0.40484917  1
  C  C40  1  0.25259330  0.25934015  0.07663006  1
  C  C41  1  0.36863528  0.31009119  0.31111566  1
  C  C42  1  0.21770485  0.26577701  0.22619949  1
  C  C43  1  0.03491096  0.45739303  0.19493227  1
  O  O44  1  0.15137492  0.25978641  0.28073148  1
  C  C45  1  0.38621867  0.29972176  0.16734086  1
  C  C46  1  0.32345298  0.29244507  0.23516831  1
  Zn  Zn47  1  0.43519081  0.37324901  0.44729465  1
  O  O48  1  0.08075691  0.47409484  0.25753763  1
  C  C49  1  0.35106027  0.28486739  0.09085413  1
  H  H50  1  0.46434569  0.32271997  0.16593664  1
  O  O51  1  0.45687317  0.33233470  0.31294398  1
  O  O52  1  0.01454062  0.48850665  0.13600550  1
  H  H53  1  0.47861839  0.45808397  0.12852984  1
  C  C54  1  0.41657342  0.28905130  0.01443474  1
  C  C55  1  0.49851547  0.48985145  0.42723927  1
  H  H56  1  0.02012215  0.38430099  0.31713967  1
  H  H57  1  0.22759916  0.25009129  0.01350848  1
  C  C58  1  0.28953898  0.47030055  0.02145440  1
  O  O59  1  0.27979636  0.40180297  0.49644746  1
  O  O60  1  0.43440847  0.49609934  0.48203989  1
  H  H61  1  0.16172664  0.28075712  0.63518452  1
  H  H62  1  0.34825803  0.43506788  0.62796446  1
  C  C63  1  0.23549136  0.30589912  0.74971725  1
  C  C64  1  0.30443887  0.34324839  0.79017530  1
  C  C65  1  0.34561685  0.38837282  0.74443442  1
  C  C66  1  0.22407547  0.37005076  0.54034044  1
  H  H67  1  0.31898813  0.33769137  0.85630419  1
  C  C68  1  0.41732756  0.43043772  0.77980331  1
  C  C69  1  0.31716629  0.39710994  0.66292830  1
  O  O70  1  0.44573828  0.47103586  0.73328120  1
  O  O71  1  0.45526591  0.42761791  0.84775965  1
  C  C72  1  0.21016517  0.31147855  0.66879421  1
  C  C73  1  0.24616114  0.35974104  0.62866517  1
  O  O74  1  0.38220994  0.27251044  0.94627733  1
  O  O75  1  0.15209482  0.33985752  0.51561519  1
  C  C76  1  0.19250925  0.25061531  0.78574978  1
  O  O77  1  0.26207569  0.43716035  0.97494632  1
  Zn  Zn78  1  0.37312548  0.57864572  0.28469928  1
  O  O79  1  0.13421867  0.61772287  0.35730370  1
  O  O80  1  0.28918701  0.58854090  0.39040036  1
  C  C81  1  0.21915191  0.66597348  0.46858465  1
  H  H82  1  0.09060803  0.72010989  0.41939329  1
  C  C83  1  0.21432448  0.62204056  0.40030768  1
  C  C84  1  0.14832632  0.71071694  0.46751712  1
  C  C85  1  0.46366443  0.53870934  0.19788813  1
  Zn  Zn86  1  0.03471425  0.53875203  0.34545609  1
  H  H87  1  0.11167543  0.71035605  0.04545665  1
  O  O88  1  0.06937076  0.50730735  0.46255123  1
  O  O89  1  0.32005700  0.50156113  0.06946954  1
  H  H90  1  0.49379769  0.60677199  0.47742219  1
  H  H91  1  0.33173321  0.61718922  0.53143792  1
  C  C92  1  0.16256028  0.53325148  0.74969090  1
  Zn  Zn93  1  0.45272423  0.67812036  0.84512167  1
  O  O94  1  0.37481180  0.71269914  0.72971002  1
  H  H95  1  0.13384831  0.52669162  0.59192863  1
  Zn  Zn96  1  0.22822228  0.60361701  0.89928178  1
  Zn  Zn97  1  0.41378970  0.55836880  0.74164855  1
  H  H98  1  0.04637127  0.63718285  0.79353188  1
  C  C99  1  0.36617351  0.68273659  0.66767333  1
  C  C100  1  0.28624313  0.69441350  0.60069565  1
  O  O101  1  0.37260173  0.60844704  0.83415458  1
  O  O102  1  0.41989233  0.63885020  0.66070086  1
  C  C103  1  0.06770623  0.50834948  0.62748365  1
  O  O104  1  0.07705320  0.62169725  0.95231967  1
  O  O105  1  0.38033892  0.73600961  0.93849182  1
  O  O106  1  0.27214414  0.66961163  0.98200257  1
  O  O107  1  0.23624570  0.55245094  0.70660242  1
  O  O108  1  0.16827474  0.53866005  0.82564456  1
  C  C109  1  0.29499880  0.72068944  0.97005335  1
  C  C110  1  0.28370076  0.65705315  0.53465137  1
  O  O111  1  0.05120029  0.65090070  0.65396756  1
  H  H112  1  0.06087539  0.65286705  0.59496007  1
  C  C113  1  0.22329769  0.74231592  0.60166932  1
  C  C114  1  0.06738873  0.50766096  0.71087988  1
  C  C115  1  0.15657619  0.74529656  0.53456382  1
  O  O116  1  0.32863943  0.86883723  0.15795002  1
  C  C117  1  0.30736601  0.86863248  0.30033155  1
  C  C118  1  0.23665027  0.91263569  0.29789286  1
  C  C119  1  0.21886852  0.94392329  0.36945284  1
  O  O120  1  0.41733684  0.80556609  0.22304315  1
  Zn  Zn121  1  0.39803770  0.94168626  0.11129854  1
  H  H122  1  0.21293060  0.92845506  0.23798619  1
  C  C123  1  0.35278067  0.84510576  0.22460279  1
  H  H124  1  0.41529701  0.81742571  0.37770632  1
  C  C125  1  0.33246590  0.88132372  0.44168582  1
  C  C126  1  0.35162016  0.84908748  0.37395301  1
  C  C127  1  0.27080452  0.93113903  0.44221139  1
  C  C128  1  0.14147742  0.99102022  0.37311750  1
  C  C129  1  0.13021012  0.75525507  0.03311173  1
  C  C130  1  0.05600874  0.79904354  0.04160343  1
  C  C131  1  0.08523884  0.85539566  0.02880812  1
  H  H132  1  0.03112691  0.88927289  0.04271441  1
  O  O133  1  0.08039159  0.99959316  0.31462273  1
  C  C134  1  0.22099663  0.92753779  0.00100626  1
  O  O135  1  0.01166364  0.80177387  0.47616654  1
  C  C136  1  0.18824563  0.86672821  0.00356828  1
  H  H137  1  0.24892585  0.95374388  0.49760797  1
  O  O138  1  0.49858226  0.88998954  0.75039789  1
  O  O139  1  0.09318740  0.83367671  0.58259160  1
  H  H140  1  0.07049136  0.91697121  0.74042550  1
  H  H141  1  0.34561732  0.83584216  0.96963821  1
  O  O142  1  0.39955815  0.91149986  0.57091050  1
  O  O143  1  0.05073158  0.99758472  0.63880564  1
  O  O144  1  0.13597037  0.83510060  0.81559860  1
  C  C145  1  0.08126240  0.79848890  0.52952299  1
  C  C146  1  0.38734648  0.87160003  0.52204346  1
  C  C147  1  0.26291108  0.82604975  0.98745820  1
  O  O148  1  0.31941374  0.93462070  0.99569469  1
  H  H149  1  0.22772389  0.77381419  0.65160640  1
  O  O150  1  0.01348028  0.77735697  0.85590902  1
  C  C151  1  0.04347764  0.81821417  0.81445541  1
  O  O152  1  0.15683162  0.96824702  0.98898857  1
  O  O153  1  0.43477236  0.82654640  0.52958861  1
  C  C154  1  0.22964434  0.77012160  0.99857020  1
  Zn  Zn155  1  0.91312375  0.02701628  0.31210693  1
  C  C156  1  0.51837649  0.13906034  0.01050548  1
  Zn  Zn157  1  0.88760017  0.16099437  0.40418191  1
  C  C158  1  0.72066596  0.04016163  0.10328320  1
  C  C159  1  0.76009255  0.03724808  0.18804632  1
  H  H160  1  0.59509959  0.09879968  0.14585451  1
  O  O161  1  0.71625708  0.06357913  0.24798624  1
  O  O162  1  0.69926646  0.15366940  0.42459383  1
  C  C163  1  0.76878471  0.01315961  0.03677704  1
  Zn  Zn164  1  0.55540153  0.07227092  0.28519448  1
  C  C165  1  0.63545562  0.07855468  0.09619165  1
  O  O166  1  0.90402498  0.07615983  0.40486380  1
  C  C167  1  0.60392197  0.09399671  0.01800453  1
  O  O168  1  0.83921159  0.00590838  0.20623221  1
  O  O169  1  0.86282582  0.24012227  0.34387254  1
  H  H170  1  0.64385978  0.24066299  0.48152638  1
  C  C171  1  0.66576749  0.12733918  0.48133674  1
  O  O172  1  0.67990732  0.07344172  0.49064959  1
  C  C173  1  0.60006095  0.21772012  0.53210588  1
  C  C174  1  0.90613824  0.15430766  0.67304728  1
  H  H175  1  0.81324115  0.15109113  0.89999682  1
  H  H176  1  0.78296353  0.21891356  0.66081900  1
  C  C177  1  0.84404659  0.15297360  0.83571353  1
  Zn  Zn178  1  0.73377077  0.01375253  0.57875379  1
  H  H179  1  0.62421777  0.08162707  0.89196612  1
  O  O180  1  0.68832317  0.22796020  0.88376525  1
  C  C181  1  0.72743908  0.02719907  0.96095474  1
  C  C182  1  0.94588835  0.16064768  0.58862656  1
  C  C183  1  0.70450888  0.22636487  0.80923585  1
  C  C184  1  0.60632267  0.16024204  0.54408452  1
  O  O185  1  0.90077629  0.19228962  0.53900178  1
  C  C186  1  0.79373684  0.18861125  0.78122748  1
  C  C187  1  0.82365172  0.18875569  0.70192305  1
  C  C188  1  0.96580234  0.12008054  0.72589265  1
  C  C189  1  0.64746783  0.06904033  0.95208957  1
  C  C190  1  0.93410964  0.12232919  0.80728807  1
  Zn  Zn191  1  0.60158660  0.02978111  0.75059761  1
  H  H192  1  0.55989583  0.08568349  0.60499006  1
  O  O193  1  0.74182837  0.02896761  0.81595791  1
  C  C194  1  0.56087950  0.13174820  0.61027827  1
  O  O195  1  0.97959030  0.08769285  0.94054568  1
  C  C196  1  0.77662632  0.00593626  0.88062686  1
  C  C197  1  0.54155683  0.24695634  0.58894444  1
  C  C198  1  0.50945675  0.16263043  0.66946994  1
  C  C199  1  0.83545396  0.30976436  0.05147538  1
  H  H200  1  0.94153741  0.40821892  0.06753688  1
  C  C201  1  0.88743289  0.29436860  0.19277810  1
  O  O202  1  0.50185247  0.31549343  0.02280066  1
  O  O203  1  0.76082224  0.27610056  0.06138225  1
  C  C204  1  0.97681352  0.40180529  0.19533741  1
  C  C205  1  0.92827938  0.31652639  0.26606426  1
  C  C206  1  0.91434195  0.28654351  0.34600074  1
  C  C207  1  0.98500424  0.48672068  0.49273123  1
  C  C208  1  0.93392533  0.38377611  0.12372764  1
  C  C209  1  0.97721009  0.36847262  0.26572968  1
  C  C210  1  0.88811862  0.33036378  0.12635288  1
  C  C211  1  0.65404125  0.48269908  0.05597051  1
  H  H212  1  0.63421374  0.48656545  0.30896849  1
  O  O213  1  0.59881274  0.44083224  0.02882891  1
  O  O214  1  0.91467358  0.46963243  0.44717283  1
  H  H215  1  0.84686868  0.25451333  0.19317230  1
  O  O216  1  0.96272404  0.30237330  0.40636299  1
  O  O217  1  0.50428959  0.44265846  0.39034990  1
  O  O218  1  0.74495035  0.48694200  0.02354995  1
  O  O219  1  0.78421817  0.45114832  0.82696659  1
  O  O220  1  0.73202577  0.41810617  0.70819448  1
  H  H221  1  0.82794611  0.44539775  0.59089609  1
  C  C222  1  0.53268120  0.31014861  0.58712047  1
  C  C223  1  0.89608184  0.46071579  0.62701203  1
  O  O224  1  0.63074278  0.35652114  0.87377177  1
  Zn  Zn225  1  0.62015858  0.43853147  0.89437549  1
  Zn  Zn226  1  0.65139257  0.35020485  0.75235339  1
  Zn  Zn227  1  0.65302025  0.29714855  0.95330122  1
  C  C228  1  0.79520554  0.44634647  0.75315371  1
  C  C229  1  0.89706645  0.46423528  0.71066483  1
  O  O230  1  0.54168718  0.33103899  0.51772299  1
  H  H231  1  0.98071514  0.48221717  0.81972118  1
  C  C232  1  0.98421664  0.48327715  0.58455423  1
  C  C233  1  0.98293991  0.48513310  0.75423273  1
  O  O234  1  0.52570377  0.33358285  0.65062562  1
  O  O235  1  0.65923208  0.25825412  0.76030525  1
  O  O236  1  0.84684780  0.33088481  0.98404134  1
  C  C237  1  0.56797707  0.54045743  0.40038452  1
  C  C238  1  0.72294045  0.56585965  0.32558905  1
  C  C239  1  0.65575614  0.57855053  0.12714903  1
  O  O240  1  0.73787149  0.58881649  0.08549218  1
  Zn  Zn241  1  0.80111685  0.67733206  0.06468623  1
  C  C242  1  0.59771225  0.61430606  0.18177844  1
  C  C243  1  0.72060164  0.61802585  0.36125982  1
  H  H244  1  0.78241543  0.64851086  0.34999242  1
  Zn  Zn245  1  0.87548818  0.52924730  0.09539155  1
  O  O246  1  0.70222806  0.72971246  0.42497435  1
  C  C247  1  0.63615126  0.63410259  0.41155403  1
  C  C248  1  0.55808003  0.59510732  0.43374960  1
  C  C249  1  0.63952503  0.52733645  0.33768022  1
  O  O250  1  0.71902923  0.68871677  0.18077228  1
  C  C251  1  0.62783321  0.67404558  0.20528302  1
  C  C252  1  0.50892782  0.50226346  0.14008615  1
  C  C253  1  0.81900005  0.54961434  0.27334028  1
  C  C254  1  0.50695166  0.59137623  0.21569966  1
  C  C255  1  0.60542807  0.52376410  0.11064412  1
  O  O256  1  0.56935445  0.70455432  0.24467188  1
  O  O257  1  0.90316478  0.57571480  0.28480379  1
  C  C258  1  0.63310201  0.69419506  0.44258239  1
  O  O259  1  0.93219087  0.73170211  0.08802550  1
  O  O260  1  0.81197597  0.51502263  0.21720951  1
  O  O261  1  0.92902084  0.60119588  0.02146172  1
  O  O262  1  0.55508177  0.71211129  0.48284491  1
  C  C263  1  0.81795984  0.58955966  0.87975062  1
  C  C264  1  0.62985321  0.72523019  0.93379371  1
  C  C265  1  0.78977265  0.59963313  0.73459050  1
  H  H266  1  0.78734965  0.57550063  0.93983999  1
  H  H267  1  0.74257547  0.59687349  0.67896724  1
  C  C268  1  0.89741900  0.61415068  0.73481763  1
  C  C269  1  0.75449633  0.58394666  0.81107261  1
  O  O270  1  0.59406347  0.55247313  0.75012855  1
  C  C271  1  0.64640578  0.55602789  0.81456690  1
  C  C272  1  0.92321241  0.60758633  0.87825330  1
  O  O273  1  0.61733295  0.53547977  0.87942095  1
  O  O274  1  0.62214731  0.69969132  0.86487554  1
  O  O275  1  0.89094766  0.63582262  0.59351681  1
  C  C276  1  0.96147679  0.62364546  0.80358878  1
  C  C277  1  0.93869852  0.63367058  0.65473415  1
  O  O278  1  0.65592530  0.69526134  0.99260401  1
  C  C279  1  0.98135166  0.60859394  0.95533897  1
  O  O280  1  0.51695202  0.95727558  0.36192559  1
  C  C281  1  0.59450621  0.95016659  0.40049433  1
  O  O282  1  0.56840117  0.94103236  0.12090687  1
  O  O283  1  0.64603614  0.86589018  0.16959684  1
  O  O284  1  0.87992199  0.81989710  0.08216336  1
  C  C285  1  0.61111362  0.89224525  0.11067927  1
  H  H286  1  0.64033865  0.84838571  0.35354676  1
  O  O287  1  0.58636540  0.82165329  0.36672609  1
  Zn  Zn288  1  0.57917031  0.79913745  0.24950148  1
  O  O289  1  0.66706081  0.94191298  0.44398944  1
  C  C290  1  0.60839420  0.86862205  0.02575037  1
  H  H291  1  0.64262763  0.79039546  0.07989597  1
  C  C292  1  0.62881596  0.81189943  0.02270157  1
  C  C293  1  0.94650532  0.78511870  0.07334782  1
  H  H294  1  0.83402910  0.98131246  0.04344331  1
  Zn  Zn295  1  0.60070360  0.80555153  0.49128932  1
  O  O296  1  0.64385416  0.84924929  0.59614912  1
  H  H297  1  0.58126193  0.79710114  0.81888207  1
  C  C298  1  0.96785267  0.97435327  0.62292775  1
  C  C299  1  0.70421582  0.82271675  0.65401896  1
  C  C300  1  0.57457069  0.87584200  0.88282093  1
  H  H301  1  0.77627595  0.92144513  0.59233845  1
  C  C302  1  0.58101179  0.90090584  0.95881088  1
  C  C303  1  0.59426030  0.81838017  0.87598963  1
  C  C304  1  0.82790935  0.90268963  0.63772922  1
  C  C305  1  0.61677724  0.78656376  0.94677750  1
  C  C306  1  0.80315341  0.85210238  0.67739792  1
  C  C307  1  0.96221499  0.84691140  0.75394444  1
  Zn  Zn308  1  0.55259378  0.92280753  0.63335861  1
  C  C309  1  0.92460236  0.92377677  0.66668908  1
  C  C310  1  0.86630373  0.82328274  0.73590641  1
  O  O311  1  0.83889171  0.96809628  0.87894417  1
  H  H312  1  0.83633505  0.78215750  0.76177862  1
  O  O313  1  0.66655130  0.78417321  0.68895523  1
  O  O314  1  0.62479630  0.98986226  0.64748231  1
  H  H315  1  0.56017300  0.94479733  0.96978843  1
  C  C316  1  0.52885950  0.91220786  0.81564639  1
  C  C317  1  0.99259681  0.89842327  0.72249742  1
  O  O318  1  0.89614673  0.99933355  0.57493162  1
  O  O319  1  0.51386613  0.96313266  0.82642014  1
