# generated using pymatgen
data_ZnH7C10N5O2
_symmetry_space_group_name_H-M   'P 1'
_cell_length_a   14.74063965
_cell_length_b   26.07763407
_cell_length_c   18.83616556
_cell_angle_alpha   90.00000000
_cell_angle_beta   90.00000000
_cell_angle_gamma   90.00000000
_symmetry_Int_Tables_number   1
_chemical_formula_structural   ZnH7C10N5O2
_chemical_formula_sum   'Zn24 H168 C240 N120 O48'
_cell_volume   7240.64100397
_cell_formula_units_Z   24
loop_
 _symmetry_equiv_pos_site_id
 _symmetry_equiv_pos_as_xyz
  1  'x, y, z'
loop_
 _atom_site_type_symbol
 _atom_site_label
 _atom_site_symmetry_multiplicity
 _atom_site_fract_x
 _atom_site_fract_y
 _atom_site_fract_z
 _atom_site_occupancy
  C  C0  1  0.17233090  0.12520490  0.12424573  1
  H  H1  1  0.38489618  0.08006305  0.34110016  1
  C  C2  1  0.17395916  0.19891659  0.39169206  1
  C  C3  1  0.23671277  0.18222142  0.23852561  1
  C  C4  1  0.18346620  0.18203540  0.11707532  1
  C  C5  1  0.20184188  0.09736541  0.18541844  1
  H  H6  1  0.12152895  0.17004093  0.40330524  1
  N  N7  1  0.15871375  0.19503670  0.04768906  1
  C  C8  1  0.00416599  0.11509923  0.41012999  1
  H  H9  1  0.40393969  0.10301798  0.48542493  1
  C  C10  1  0.46421307  0.09300818  0.03294811  1
  C  C11  1  0.14093862  0.08609244  0.42597063  1
  H  H12  1  0.43278702  0.14823980  0.11603032  1
  H  H13  1  0.20854671  0.05443316  0.19149971  1
  C  C14  1  0.21821240  0.21105038  0.17599563  1
  C  C15  1  0.22660394  0.05890714  0.42766344  1
  H  H16  1  0.32580740  0.20027880  0.04133722  1
  C  C17  1  0.43170671  0.10716442  0.36826780  1
  C  C18  1  0.10919917  0.11406066  0.49067429  1
  C  C19  1  0.22511313  0.12752004  0.24355414  1
  H  H20  1  0.26169720  0.20218957  0.28213011  1
  H  H21  1  0.04480150  0.04063876  0.47535365  1
  C  C22  1  0.36215011  0.16902161  0.01723060  1
  N  N23  1  0.14345417  0.10701579  0.05893664  1
  C  C24  1  0.41623329  0.13849257  0.05965219  1
  C  C25  1  0.26194989  0.19007873  0.41444328  1
  H  H26  1  0.24662844  0.10716173  0.29204691  1
  C  C27  1  0.12967403  0.15163852  0.01964838  1
  Zn  Zn28  1  0.13090084  0.02501533  0.02500674  1
  H  H29  1  0.27499741  0.15506323  0.44607876  1
  H  H30  1  0.49658343  0.13162515  0.27287515  1
  N  N31  1  0.07045689  0.08826272  0.37811834  1
  N  N32  1  0.01905420  0.13008136  0.47960194  1
  H  H33  1  0.24645474  0.03199099  0.38446746  1
  C  C34  1  0.27732459  0.06142501  0.49051073  1
  N  N35  1  0.41481936  0.00354179  0.39900199  1
  H  H36  1  0.33961491  0.03960675  0.49502589  1
  O  O37  1  0.28060505  0.00663598  0.09111318  1
  N  N38  1  0.48286840  0.13228459  0.32611260  1
  C  C39  1  0.44389886  0.12057785  0.44229957  1
  C  C40  1  0.49789400  0.00412892  0.42293946  1
  H  H41  1  0.40367443  0.21258939  0.41816328  1
  C  C42  1  0.15288977  0.24200896  0.35040863  1
  C  C43  1  0.33417268  0.22492356  0.39871554  1
  O  O44  1  0.34382208  0.11538973  0.76353512  1
  C  C45  1  0.28847874  0.08776409  0.73180982  1
  C  C46  1  0.31635961  0.03912591  0.70422704  1
  C  C47  1  0.39887841  0.11018508  0.91117162  1
  Zn  Zn48  1  0.00015616  0.21029528  0.70532486  1
  C  C49  1  0.04429553  0.01013224  0.51502194  1
  C  C50  1  0.12913883  0.06807228  0.67157097  1
  C  C51  1  0.15751185  0.14732818  0.73591577  1
  C  C52  1  0.16328076  0.11592810  0.55272276  1
  C  C53  1  0.30200664  0.17908010  0.88462466  1
  H  H54  1  0.29640863  0.16261054  0.82781391  1
  N  N55  1  0.12402817  0.18616492  0.75074262  1
  C  C56  1  0.35539737  0.15514823  0.94262750  1
  N  N57  1  0.23768267  0.21250919  0.89418613  1
  H  H58  1  0.07203599  0.03423936  0.78651164  1
  C  C59  1  0.18857903  0.09952845  0.71276620  1
  C  C60  1  0.24902149  0.09257988  0.55216725  1
  H  H61  1  0.38722155  0.02558527  0.70464663  1
  H  H62  1  0.38478321  0.09839590  0.85659844  1
  H  H63  1  0.13636226  0.13169375  0.60417088  1
  H  H64  1  0.05922671  0.07998542  0.65679401  1
  H  H65  1  0.10113669  0.02029508  0.90820396  1
  N  N66  1  0.05987918  0.03862903  0.94073763  1
  C  C67  1  0.16368803  0.01982164  0.65002560  1
  C  C68  1  0.45345989  0.08095549  0.95702525  1
  H  H69  1  0.29319045  0.09142146  0.59985848  1
  H  H70  1  0.49227643  0.04913948  0.93783577  1
  H  H71  1  0.11484593  0.15488039  0.96200120  1
  Zn  Zn72  1  0.15077317  0.24253949  0.81950317  1
  C  C73  1  0.25665961  0.00558141  0.66519558  1
  H  H74  1  0.15289861  0.43252355  0.18055103  1
  C  C75  1  0.49562236  0.34092962  0.33988623  1
  Zn  Zn76  1  0.18562642  0.49026874  0.00527697  1
  H  H77  1  0.35075526  0.49958992  0.35578843  1
  N  N78  1  0.05280977  0.47253477  0.03892874  1
  N  N79  1  0.07859791  0.26271577  0.32316389  1
  C  C80  1  0.22987179  0.27675870  0.33217073  1
  N  N81  1  0.25870086  0.35379763  0.11020694  1
  C  C82  1  0.14786301  0.47701085  0.28409407  1
  C  C83  1  0.10141106  0.30507608  0.28911998  1
  H  H84  1  0.05694338  0.33503810  0.26784757  1
  N  N85  1  0.40771209  0.37005678  0.04341517  1
  O  O86  1  0.18618158  0.32722710  0.10822429  1
  C  C87  1  0.32438328  0.34358545  0.05199293  1
  H  H88  1  0.23594494  0.25106296  0.17298750  1
  N  N89  1  0.19313230  0.31521242  0.29210005  1
  O  O90  1  0.27337588  0.38991562  0.15428273  1
  C  C91  1  0.25346197  0.38840693  0.44069996  1
  H  H92  1  0.25832654  0.35213914  0.40940519  1
  C  C93  1  0.46175890  0.37462750  0.22651226  1
  C  C94  1  0.25523888  0.47040268  0.46522885  1
  O  O95  1  0.05382965  0.48814539  0.10170136  1
  H  H96  1  0.10059037  0.44674956  0.30686924  1
  N  N97  1  0.28725401  0.43395396  0.41868991  1
  H  H98  1  0.44545884  0.42122764  0.32593009  1
  C  C99  1  0.17140481  0.46716570  0.21386591  1
  H  H100  1  0.49046160  0.33271999  0.13687514  1
  C  C101  1  0.32321677  0.26846981  0.35695012  1
  H  H102  1  0.38038154  0.29267526  0.34179636  1
  H  H103  1  0.42762654  0.40033817  0.18999841  1
  H  H104  1  0.02616966  0.31385476  0.40208835  1
  C  C105  1  0.46381379  0.38388208  0.30094198  1
  N  N106  1  0.49357416  0.33453606  0.41079692  1
  C  C107  1  0.49472285  0.32839659  0.19625008  1
  H  H108  1  0.05793743  0.48182322  0.46630292  1
  N  N109  1  0.32075797  0.30412187  0.00695778  1
  N  N110  1  0.26398428  0.28703871  0.78081814  1
  N  N111  1  0.23790431  0.44770619  0.93250026  1
  C  C112  1  0.21838281  0.40245444  0.90845786  1
  C  C113  1  0.22674660  0.49294900  0.73190267  1
  H  H114  1  0.42740525  0.37984008  0.72584928  1
  N  N115  1  0.47269847  0.43096300  0.57122697  1
  Zn  Zn116  1  0.20841001  0.25392829  0.98045784  1
  O  O117  1  0.03721455  0.40013221  0.74203143  1
  N  N118  1  0.44114531  0.49798021  0.90239429  1
  N  N119  1  0.06303994  0.48048735  0.80397108  1
  C  C120  1  0.40924671  0.35925838  0.61955119  1
  C  C121  1  0.27303069  0.37736072  0.85712439  1
  H  H122  1  0.39411214  0.43192996  0.83524016  1
  C  C123  1  0.29363477  0.33266825  0.80889218  1
  H  H124  1  0.29333137  0.47073787  0.92124106  1
  O  O125  1  0.41109843  0.46630920  0.82924697  1
  H  H126  1  0.42003916  0.37415520  0.50118750  1
  N  N127  1  0.20977711  0.38977265  0.50138805  1
  N  N128  1  0.34298995  0.37176685  0.81784951  1
  C  C129  1  0.15732721  0.46507162  0.57475068  1
  H  H130  1  0.25851589  0.45769792  0.71016762  1
  C  C131  1  0.43151348  0.38609580  0.55723255  1
  C  C132  1  0.06858990  0.43855139  0.76307112  1
  N  N133  1  0.11483840  0.27460689  0.91693196  1
  H  H134  1  0.38098489  0.31959013  0.62554285  1
  H  H135  1  0.40305502  0.27283788  0.92546283  1
  C  C136  1  0.04694582  0.30362516  0.93441293  1
  H  H137  1  0.15965761  0.38554694  0.94009568  1
  N  N138  1  0.43551257  0.38770511  0.67305322  1
  C  C139  1  0.39684830  0.30226465  0.97035509  1
  O  O140  1  0.45427053  0.47779715  0.96179850  1
  O  O141  1  0.31277015  0.26340390  0.73727862  1
  C  C142  1  0.47333364  0.43392788  0.64527925  1
  H  H143  1  0.11406309  0.44418191  0.61492793  1
  O  O144  1  0.04030744  0.32147501  0.99478607  1
  C  C145  1  0.20695440  0.44073463  0.51961268  1
  N  N146  1  0.03264809  0.26155768  0.76848148  1
  C  C147  1  0.13947557  0.49473857  0.77523718  1
  C  C148  1  0.45076913  0.34444043  0.99246789  1
  H  H149  1  0.03975047  0.33062111  0.53489621  1
  C  C150  1  0.18652208  0.69070840  0.06942842  1
  N  N151  1  0.31215498  0.57749817  0.17659029  1
  C  C152  1  0.00224566  0.69618524  0.15544476  1
  C  C153  1  0.17001130  0.52392014  0.32111425  1
  H  H154  1  0.06544326  0.71641701  0.25747492  1
  C  C155  1  0.05030748  0.68671455  0.21997805  1
  C  C156  1  0.22400626  0.50363365  0.17559635  1
  C  C157  1  0.22612646  0.56035329  0.28756368  1
  H  H158  1  0.33702441  0.57569351  0.07025407  1
  N  N159  1  0.25753842  0.68434632  0.34389457  1
  H  H160  1  0.24244894  0.59808843  0.31129255  1
  H  H161  1  0.38123842  0.65291084  0.29986663  1
  C  C162  1  0.45337051  0.51718695  0.43356295  1
  H  H163  1  0.18570721  0.60948929  0.10688433  1
  C  C164  1  0.25837315  0.52681381  0.47231450  1
  C  C165  1  0.18945902  0.63702302  0.06095655  1
  C  C166  1  0.31091434  0.55384186  0.11363138  1
  N  N167  1  0.33146387  0.72264179  0.25206289  1
  N  N168  1  0.41163278  0.67924854  0.08156818  1
  H  H169  1  0.44215435  0.52158541  0.24914583  1
  C  C170  1  0.06740484  0.63482532  0.23564449  1
  H  H171  1  0.18157211  0.70783631  0.12489062  1
  C  C172  1  0.32740932  0.68308952  0.29756953  1
  C  C173  1  0.47436077  0.70202053  0.41882719  1
  C  C174  1  0.04452990  0.59429892  0.18981724  1
  N  N175  1  0.00165878  0.58536446  0.43521987  1
  C  C176  1  0.25534467  0.54845868  0.21850041  1
  H  H177  1  0.10272316  0.62393051  0.28500937  1
  C  C178  1  0.46375905  0.66870743  0.47815921  1
  H  H179  1  0.29357382  0.55353566  0.43405321  1
  C  C180  1  0.47011414  0.53119317  0.30126125  1
  N  N181  1  0.25952699  0.50908989  0.10641132  1
  C  C182  1  0.41620074  0.72322409  0.09467771  1
  H  H183  1  0.14217554  0.52893265  0.37406177  1
  C  C184  1  0.42113029  0.51485718  0.36340719  1
  C  C185  1  0.21284094  0.72704804  0.32958659  1
  H  H186  1  0.05995889  0.55503775  0.20558741  1
  H  H187  1  0.41687300  0.72378088  0.39430460  1
  H  H188  1  0.41638272  0.50392519  0.48047177  1
  C  C189  1  0.19183119  0.72618428  0.01332715  1
  H  H190  1  0.11866087  0.74246143  0.42596705  1
  H  H191  1  0.37373806  0.67328025  0.03382254  1
  H  H192  1  0.27356374  0.73964635  0.74253938  1
  O  O193  1  0.36743659  0.70774918  0.80277734  1
  N  N194  1  0.22404561  0.56758034  0.96700742  1
  C  C195  1  0.41561752  0.61292756  0.61563888  1
  H  H196  1  0.46960468  0.64864902  0.78598898  1
  H  H197  1  0.11641973  0.53575857  0.61873081  1
  C  C198  1  0.22191092  0.65532137  0.93560266  1
  O  O199  1  0.02315665  0.73509326  0.88661982  1
  N  N200  1  0.27998302  0.53041066  0.74026461  1
  C  C201  1  0.15748756  0.51796595  0.57697724  1
  C  C202  1  0.09377540  0.66108826  0.61182643  1
  H  H203  1  0.00095204  0.70650838  0.78168767  1
  H  H204  1  0.30418402  0.66784724  0.61231114  1
  C  C205  1  0.37029994  0.65580486  0.58637105  1
  H  H206  1  0.19246766  0.65228865  0.77898681  1
  C  C207  1  0.46161804  0.54898326  0.88991925  1
  H  H208  1  0.00850368  0.51325110  0.93397578  1
  C  C209  1  0.11553920  0.64370044  0.67978359  1
  C  C210  1  0.21329249  0.54845842  0.52964383  1
  H  H211  1  0.21690328  0.58979202  0.53585753  1
  Zn  Zn212  1  0.41803689  0.53425440  0.72187250  1
  N  N213  1  0.24486120  0.62661382  0.87360452  1
  H  H214  1  0.05312494  0.63816289  0.57502892  1
  C  C215  1  0.21263235  0.70899036  0.94357326  1
  C  C216  1  0.38846822  0.68133287  0.52127185  1
  N  N217  1  0.44513959  0.57279640  0.82025490  1
  C  C218  1  0.20653666  0.73328604  0.63620070  1
  C  C219  1  0.24577283  0.57860191  0.89573593  1
  H  H220  1  0.22475966  0.73813437  0.90270163  1
  N  N221  1  0.45225086  0.57783668  0.64111728  1
  H  H222  1  0.25897918  0.54755851  0.85458771  1
  C  C223  1  0.14603864  0.70387360  0.58716159  1
  C  C224  1  0.18013703  0.66979305  0.72671488  1
  O  O225  1  0.00199373  0.54848801  0.94492895  1
  C  C226  1  0.22260181  0.71547075  0.70743030  1
  H  H227  1  0.08347286  0.60597267  0.69234287  1
  H  H228  1  0.12531355  0.53219665  0.80912903  1
  N  N229  1  0.15908066  0.72614249  0.52014142  1
  C  C230  1  0.37696940  0.73701802  0.84903531  1
  H  H231  1  0.34007171  0.71222166  0.50754695  1
  C  C232  1  0.46864610  0.62231902  0.82975752  1
  N  N233  1  0.49256689  0.58476187  0.93654202  1
  C  C234  1  0.20571066  0.61732273  0.99185427  1
  C  C235  1  0.47483620  0.84165944  0.19814228  1
  C  C236  1  0.40065813  0.81373990  0.05570628  1
  N  N237  1  0.37967131  0.83610933  0.45142881  1
  N  N238  1  0.26374671  0.99784202  0.02693728  1
  C  C239  1  0.23388064  0.80232517  0.23988122  1
  H  H240  1  0.41686116  0.89124628  0.02544468  1
  H  H241  1  0.37821782  0.88325323  0.35949545  1
  C  C242  1  0.46624098  0.87765343  0.13798489  1
  H  H243  1  0.17572910  0.76643293  0.01719455  1
  C  C244  1  0.42342770  0.98789299  0.33173613  1
  C  C245  1  0.42393013  0.77595957  0.11304051  1
  C  C246  1  0.43039604  0.86276228  0.06848994  1
  C  C247  1  0.41456041  0.86962165  0.40802373  1
  C  C248  1  0.45819385  0.79223852  0.18143012  1
  C  C249  1  0.15457909  0.82483277  0.27146638  1
  C  C250  1  0.14245266  0.75264527  0.36907875  1
  N  N251  1  0.49121403  0.92446173  0.15634189  1
  H  H252  1  0.47835539  0.76229953  0.22085441  1
  H  H253  1  0.11979379  0.86174470  0.24998360  1
  C  C254  1  0.12653901  0.79730426  0.33198157  1
  O  O255  1  0.36128725  0.97828257  0.29534573  1
  O  O256  1  0.09454300  0.84714676  0.03617560  1
  C  C257  1  0.03333365  0.93785877  0.24691552  1
  C  C258  1  0.25705168  0.75316469  0.26587478  1
  H  H259  1  0.26904591  0.81792677  0.19498315  1
  O  O260  1  0.08811366  0.95667760  0.28353210  1
  N  N261  1  0.07419796  0.98264074  0.10307731  1
  Zn  Zn262  1  0.49594559  0.98927472  0.09859724  1
  H  H263  1  0.14948469  0.96305863  0.47087499  1
  C  C264  1  0.00730732  0.95390717  0.10094235  1
  H  H265  1  0.23936092  0.79453389  0.49239946  1
  C  C266  1  0.02415637  0.83948016  0.04126923  1
  H  H267  1  0.37951957  0.80074882  0.00339212  1
  C  C268  1  0.39311784  0.79908297  0.89273248  1
  O  O269  1  0.24802474  0.92710249  0.60805416  1
  C  C270  1  0.39300805  0.95144348  0.88589590  1
  C  C271  1  0.44019423  0.81983326  0.69010419  1
  H  H272  1  0.11746497  0.99018711  0.62620528  1
  C  C273  1  0.46050375  0.95626954  0.93649661  1
  C  C274  1  0.21067371  0.76792480  0.53296899  1
  N  N275  1  0.46243416  0.86742241  0.70429233  1
  O  O276  1  0.45424218  0.99541906  0.57757393  1
  H  H277  1  0.38390519  0.81297300  0.64964647  1
  N  N278  1  0.29417147  0.95950869  0.64111657  1
  N  N279  1  0.23941179  0.77347048  0.60025183  1
  C  C280  1  0.07861113  0.91925937  0.55333083  1
  H  H281  1  0.21636937  0.98686733  0.81176174  1
  N  N282  1  0.31018941  0.96564320  0.91265582  1
  O  O283  1  0.17048543  0.78961894  0.80128177  1
  O  O284  1  0.38688455  0.84261180  0.90705374  1
  N  N285  1  0.02874199  0.83449162  0.82723876  1
  C  C286  1  0.11531555  0.81965433  0.81599635  1
  Zn  Zn287  1  0.42151380  0.93568505  0.65283192  1
  H  H288  1  0.40093343  0.93766830  0.83238370  1
  C  C289  1  0.07313263  0.99074199  0.78778892  1
  H  H290  1  0.04351861  0.76381084  0.62552491  1
  H  H291  1  0.20017850  0.89518371  0.86017386  1
  C  C292  1  0.15112097  0.96520729  0.81272384  1
  C  C293  1  0.14230658  0.91375164  0.83495947  1
  C  C294  1  0.06275586  0.88530079  0.81702707  1
  O  O295  1  0.43523400  0.79482908  0.55200659  1
  H  H296  1  0.12391676  0.88625042  0.54625254  1
  N  N297  1  0.39845171  0.75087066  0.91462536  1
  C  C298  1  0.00575789  0.91608910  0.60306856  1
  C  C299  1  0.44525126  0.82528348  0.50446372  1
  N  N300  1  0.42429463  0.97184247  0.99995989  1
  C  C301  1  0.32829180  0.97962708  0.98173380  1
  C  C302  1  0.09286886  0.96362420  0.51047018  1
  H  H303  1  0.95616802  0.20824172  0.28843416  1
  H  H304  1  0.51780232  0.01748310  0.47657633  1
  C  C305  1  0.84968806  0.14253193  0.15231376  1
  N  N306  1  0.51157485  0.06310646  0.07865547  1
  C  C307  1  0.89901157  0.18755855  0.26128425  1
  O  O308  1  0.67635736  0.08919070  0.39042000  1
  O  O309  1  0.67688285  0.02297014  0.19581231  1
  C  C310  1  0.60963599  0.15673441  0.20094027  1
  H  H311  1  0.95183400  0.04202053  0.10908726  1
  N  N312  1  0.90795739  0.05818621  0.07269576  1
  Zn  Zn313  1  0.64533144  0.06864278  0.10096623  1
  C  C314  1  0.76284595  0.14533397  0.18214301  1
  N  N315  1  0.60542253  0.00788454  0.16256247  1
  C  C316  1  0.81252530  0.19330611  0.29025784  1
  N  N317  1  0.69916887  0.18920806  0.43053980  1
  O  O318  1  0.53087339  0.15195112  0.18818903  1
  C  C319  1  0.92115169  0.16069941  0.19683076  1
  N  N320  1  0.64688467  0.18108221  0.26330343  1
  H  H321  1  0.79152751  0.01915859  0.45210752  1
  C  C322  1  0.75452031  0.15171126  0.44931202  1
  Zn  Zn323  1  0.58133014  0.18608347  0.36460853  1
  N  N324  1  0.74122687  0.09982098  0.43038285  1
  H  H325  1  0.79993173  0.21921698  0.33614058  1
  N  N326  1  0.50499724  0.15989767  0.44595617  1
  C  C327  1  0.73636794  0.17215346  0.25105562  1
  H  H328  1  0.85551918  0.12577292  0.09933922  1
  N  N329  1  0.67949255  0.13202810  0.15689854  1
  O  O330  1  0.80788198  0.05291112  0.46241229  1
  O  O331  1  0.56057523  0.24473260  0.05772351  1
  H  H332  1  0.93674116  0.11517502  0.38653840  1
  C  C333  1  0.72993835  0.23296404  0.45772468  1
  N  N334  1  0.82862708  0.17223081  0.49375916  1
  H  H335  1  0.99049916  0.15925208  0.17423870  1
  C  C336  1  0.80943380  0.22289302  0.49750392  1
  N  N337  1  0.61399363  0.24984691  0.00311838  1
  C  C338  1  0.93593466  0.06082999  0.01382353  1
  N  N339  1  0.74733696  0.11052005  0.70244997  1
  H  H340  1  0.91301855  0.09459156  0.70400589  1
  C  C341  1  0.63967854  0.08154048  0.62637451  1
  N  N342  1  0.68645321  0.07656772  0.86812155  1
  N  N343  1  0.63436970  0.04371573  0.67326901  1
  C  C344  1  0.70896419  0.11954037  0.64397035  1
  C  C345  1  0.51565392  0.16303201  0.51442470  1
  O  O346  1  0.94310738  0.07581745  0.74370890  1
  H  H347  1  0.68874148  0.15999467  0.84940118  1
  N  N348  1  0.90308223  0.16953255  0.66377513  1
  C  C349  1  0.67254854  0.04904135  0.93903611  1
  C  C350  1  0.68508796  0.12547309  0.88560353  1
  O  O351  1  0.97645635  0.19337894  0.60818329  1
  C  C352  1  0.68653993  0.12915166  0.96061499  1
  H  H353  1  0.72476477  0.15482444  0.61346319  1
  H  H354  1  0.59804128  0.08236627  0.57429312  1
  O  O355  1  0.60265933  0.23323378  0.94025776  1
  N  N356  1  0.67613456  0.08368889  0.99321063  1
  N  N357  1  0.78340994  0.22545674  0.81501794  1
  Zn  Zn358  1  0.83040568  0.15631445  0.74807960  1
  Zn  Zn359  1  0.70964130  0.04536052  0.76494369  1
  Zn  Zn360  1  0.91976890  0.13068955  0.57013392  1
  O  O361  1  0.85428583  0.19447707  0.85309101  1
  N  N362  1  0.91691981  0.04973486  0.59254673  1
  C  C363  1  0.97803625  0.06275434  0.94619002  1
  C  C364  1  0.56893597  0.01219331  0.65660661  1
  N  N365  1  0.92434104  0.09817633  0.82055835  1
  C  C366  1  0.94216358  0.08465475  0.87579697  1
  H  H367  1  0.79175041  0.04216973  0.65044801  1
  H  H368  1  0.69146780  0.16367236  0.99802316  1
  C  C369  1  0.85477383  0.02279369  0.63134607  1
  H  H370  1  0.79379659  0.01437765  0.88083798  1
  O  O371  1  0.53474116  0.17498316  0.57273272  1
  C  C372  1  0.97716682  0.01209532  0.57199110  1
  O  O373  1  0.67049013  0.00310096  0.94615945  1
  C  C374  1  0.92129686  0.45002735  0.44384846  1
  N  N375  1  0.84058660  0.31052429  0.33577530  1
  C  C376  1  0.80574589  0.31122433  0.08557507  1
  C  C377  1  0.82971953  0.45860681  0.42195463  1
  C  C378  1  0.96469510  0.31971544  0.43305954  1
  H  H379  1  0.69037245  0.26916850  0.45117549  1
  C  C380  1  0.53062289  0.28961407  0.30712386  1
  C  C381  1  0.75487000  0.32593209  0.33730108  1
  N  N382  1  0.72615679  0.34794522  0.39725924  1
  C  C383  1  0.87484967  0.32101141  0.40208490  1
  H  H384  1  0.70967202  0.32529549  0.29270915  1
  N  N385  1  0.54441563  0.25919880  0.36404340  1
  C  C386  1  0.79709405  0.34290184  0.44340940  1
  C  C387  1  0.53117169  0.28592577  0.23177280  1
  H  H388  1  0.52833363  0.27058266  0.47787132  1
  H  H389  1  0.93789906  0.41094465  0.45284665  1
  H  H390  1  0.78322333  0.42648602  0.41423217  1
  C  C391  1  0.52636487  0.28557175  0.42427215  1
  N  N392  1  0.89385110  0.43666778  0.03170086  1
  C  C393  1  0.70153298  0.27157916  0.01740685  1
  N  N394  1  0.72297748  0.29350235  0.08695442  1
  C  C395  1  0.98699837  0.48912763  0.45223081  1
  H  H396  1  0.83995163  0.32559818  0.13367133  1
  C  C397  1  0.83774302  0.29957200  0.01500968  1
  C  C398  1  0.97992694  0.44889016  0.00639255  1
  H  H399  1  0.55598005  0.25166290  0.20446177  1
  Zn  Zn400  1  0.76814211  0.27939756  0.86815935  1
  N  N401  1  0.64367440  0.41950277  0.80776149  1
  C  C402  1  0.91190430  0.40500971  0.92322525  1
  C  C403  1  0.85224233  0.40950501  0.98227250  1
  N  N404  1  0.73747991  0.36727857  0.72019157  1
  N  N405  1  0.90353903  0.31331276  0.83466167  1
  H  H406  1  0.59165684  0.44470748  0.90942986  1
  N  N407  1  0.98765387  0.42849932  0.93604513  1
  Zn  Zn408  1  0.62404804  0.48119428  0.74087688  1
  C  C409  1  0.69615092  0.37646447  0.79176868  1
  H  H410  1  0.66364254  0.35136571  0.95812837  1
  C  C411  1  0.81541113  0.48308778  0.80529836  1
  C  C412  1  0.62212756  0.41393883  0.87680892  1
  N  N413  1  0.70643448  0.34678966  0.85115021  1
  H  H414  1  0.90138773  0.38620468  0.87245282  1
  O  O415  1  0.71397962  0.39223852  0.66573586  1
  N  N416  1  0.77302647  0.27828241  0.97278066  1
  H  H417  1  0.78437932  0.39523026  0.99316201  1
  C  C418  1  0.97922120  0.30893115  0.87134581  1
  H  H419  1  0.83406850  0.45271409  0.76917226  1
  C  C420  1  0.66177515  0.36847728  0.90589958  1
  O  O421  1  0.79569520  0.32986044  0.72231512  1
  C  C422  1  0.97559951  0.28986494  0.80264663  1
  H  H423  1  0.75001245  0.37633727  0.54585577  1
  C  C424  1  0.80539030  0.35548856  0.51638369  1
  N  N425  1  0.50818543  0.47974912  0.66966885  1
  H  H426  1  0.52102692  0.35448510  0.97336646  1
  C  C427  1  0.97344705  0.33054678  0.50601836  1
  C  C428  1  0.89207105  0.34524873  0.54505011  1
  H  H429  1  0.91027347  0.35432041  0.60141899  1
  H  H430  1  0.94124790  0.48970326  0.85825651  1
  H  H431  1  0.84683804  0.25125586  0.52872748  1
  H  H432  1  0.90483479  0.30899548  0.99185515  1
  H  H433  1  0.89040982  0.57013469  0.28793879  1
  C  C434  1  0.86043764  0.54864960  0.41734564  1
  H  H435  1  0.84874920  0.70944187  0.23938456  1
  H  H436  1  0.61789556  0.57610624  0.01226105  1
  H  H437  1  0.97859029  0.56853935  0.09081997  1
  N  N438  1  0.77104508  0.61498618  0.25572025  1
  C  C439  1  0.99946332  0.60089167  0.12539867  1
  C  C440  1  0.55480811  0.70281108  0.38344370  1
  N  N441  1  0.84563200  0.73011594  0.47799964  1
  C  C442  1  0.72446704  0.71097951  0.08415890  1
  C  C443  1  0.71578247  0.61163023  0.19908143  1
  C  C444  1  0.54656958  0.56308837  0.30938931  1
  N  N445  1  0.97129306  0.74135893  0.12572870  1
  H  H446  1  0.95706488  0.66070343  0.40985204  1
  C  C447  1  0.58263948  0.56936613  0.37999652  1
  N  N448  1  0.94413871  0.67803216  0.04817153  1
  C  C449  1  0.64054299  0.64199680  0.17338916  1
  N  N450  1  0.82515433  0.70955008  0.35038418  1
  N  N451  1  0.63851318  0.69843018  0.36354630  1
  C  C452  1  0.95989931  0.53910379  0.43427158  1
  N  N453  1  0.85079026  0.60048348  0.40543457  1
  C  C454  1  0.65806394  0.58427331  0.47971288  1
  N  N455  1  0.65388706  0.59456022  0.41011511  1
  Zn  Zn456  1  0.74052064  0.64224576  0.35514583  1
  C  C457  1  0.64247323  0.58724190  0.06507500  1
  H  H458  1  0.62124690  0.67622318  0.20716800  1
  H  H459  1  0.74397428  0.53213223  0.04723241  1
  C  C460  1  0.93721557  0.61973167  0.41768897  1
  H  H461  1  0.77264646  0.68594292  0.11526544  1
  C  C462  1  0.86504633  0.73645216  0.40630433  1
  C  C463  1  0.75868657  0.56955140  0.15258009  1
  C  C464  1  0.83719336  0.57912418  0.24888725  1
  C  C465  1  0.86591029  0.72648496  0.29210754  1
  C  C466  1  0.97939641  0.65220154  0.10408447  1
  C  C467  1  0.94215286  0.72870068  0.06091086  1
  H  H468  1  0.54599880  0.64970811  0.08491916  1
  C  C469  1  0.71802587  0.55977498  0.08521823  1
  N  N470  1  0.82987119  0.54917684  0.18894886  1
  H  H471  1  0.72394980  0.51541903  0.39671469  1
  H  H472  1  0.57846815  0.57877164  0.26212700  1
  C  C473  1  0.71405502  0.70540040  0.00864788  1
  C  C474  1  0.53741077  0.54584898  0.44341163  1
  C  C475  1  0.60556938  0.62803187  0.10615253  1
  C  C476  1  0.59773161  0.73022964  0.31694812  1
  O  O477  1  0.60234450  0.73934284  0.25636252  1
  H  H478  1  0.51182308  0.63833790  0.49069699  1
  C  C479  1  0.79492482  0.50792646  0.41074597  1
  C  C480  1  0.91581009  0.56671848  0.63090485  1
  O  O481  1  0.78350247  0.70187572  0.50118389  1
  H  H482  1  0.71133769  0.59617588  0.51672469  1
  O  O483  1  0.95705428  0.53095834  0.61429951  1
  C  C484  1  0.88312326  0.60928886  0.75607485  1
  N  N485  1  0.94004917  0.66708501  0.85858257  1
  H  H486  1  0.62480373  0.56104556  0.85035922  1
  H  H487  1  0.84898312  0.57595418  0.78014629  1
  H  H488  1  0.93006495  0.65123629  0.65674653  1
  C  C489  1  0.61565399  0.70578001  0.61698507  1
  C  C490  1  0.69189555  0.54325759  0.85242998  1
  C  C491  1  0.81905710  0.59172756  0.62787753  1
  C  C492  1  0.74209696  0.55968654  0.64940514  1
  O  O493  1  0.67574888  0.64890816  0.75269350  1
  C  C494  1  0.71199158  0.69164936  0.89459836  1
  C  C495  1  0.75115815  0.56196435  0.90407780  1
  C  C496  1  0.89967489  0.61538522  0.67801860  1
  C  C497  1  0.84173920  0.54313005  0.90331595  1
  H  H498  1  0.80893760  0.61965267  0.58295158  1
  C  C499  1  0.92263963  0.64509504  0.80072442  1
  N  N500  1  0.67864712  0.53587653  0.66080074  1
  N  N501  1  0.68720861  0.71389749  0.66106073  1
  N  N502  1  0.65606265  0.73294358  0.89696648  1
  H  H503  1  0.56964162  0.67088907  0.61548379  1
  Zn  Zn504  1  0.55876107  0.53483021  0.60907379  1
  C  C505  1  0.87367179  0.50404943  0.85450518  1
  C  C506  1  0.67203510  0.67673534  0.70492717  1
  C  C507  1  0.99690485  0.70709032  0.84071645  1
  H  H508  1  0.73102660  0.59175526  0.94295865  1
  C  C509  1  0.50160470  0.62933682  0.89812400  1
  C  C510  1  0.65174124  0.74248615  0.96894514  1
  H  H511  1  0.74688304  0.68024015  0.84569683  1
  N  N512  1  0.74959390  0.67392937  0.95814521  1
  Zn  Zn513  1  0.89661092  0.64523271  0.95391317  1
  N  N514  1  0.90125541  0.57151451  0.94084521  1
  C  C515  1  0.72577309  0.50360149  0.80854737  1
  H  H516  1  0.53349393  0.66219138  0.92591930  1
  H  H517  1  0.50829747  0.74381439  0.71463007  1
  C  C518  1  0.60936151  0.74979800  0.56946554  1
  N  N519  1  0.58572851  0.55774107  0.50573772  1
  C  C520  1  0.68668109  0.86920442  0.31110854  1
  N  N521  1  0.85605861  0.87078496  0.44421707  1
  C  C522  1  0.93200670  0.76467458  0.31141616  1
  N  N523  1  0.72593909  0.87739257  0.11871723  1
  Zn  Zn524  1  0.58553453  0.94593252  0.22475188  1
  O  O525  1  0.67405661  0.91127386  0.09078992  1
  H  H526  1  0.97844034  0.78792805  0.28073937  1
  H  H527  1  0.68877122  0.76521091  0.40642600  1
  H  H528  1  0.50971344  0.84917342  0.24708173  1
  O  O529  1  0.66208510  0.95365891  0.48745474  1
  H  H530  1  0.74998564  0.78858799  0.46226208  1
  H  H531  1  0.78203125  0.80243617  0.33711239  1
  N  N532  1  0.76646664  0.82719421  0.22832547  1
  O  O533  1  0.78379614  0.85010610  0.08537817  1
  C  C534  1  0.71369225  0.86604921  0.19530819  1
  N  N535  1  0.66268695  0.88717309  0.24739330  1
  C  C536  1  0.75175370  0.82981083  0.29779842  1
  H  H537  1  0.67165012  0.88580148  0.36229653  1
  H  H538  1  0.94122440  0.95607448  0.33600098  1
  H  H539  1  0.98511774  0.85783741  0.39723994  1
  H  H540  1  0.63944057  0.98486273  0.37536870  1
  C  C541  1  0.90644427  0.93399666  0.37633473  1
  N  N542  1  0.82883796  0.95042920  0.39957513  1
  C  C543  1  0.92606123  0.88444915  0.40482174  1
  C  C544  1  0.79673566  0.91206452  0.44669494  1
  O  O545  1  0.70325446  0.79594175  0.43055140  1
  C  C546  1  0.62125545  0.78770148  0.07457718  1
  H  H547  1  0.91714808  0.75984564  0.02587290  1
  H  H548  1  0.58892688  0.82158626  0.09860927  1
  N  N549  1  0.52585883  0.97525042  0.31392628  1
  N  N550  1  0.71402800  0.91617710  0.48265083  1
  H  H551  1  0.55305162  0.90895068  0.41262315  1
  N  N552  1  0.93107167  0.77139309  0.37907234  1
  C  C553  1  0.67869548  0.75384012  0.11241380  1
  N  N554  1  0.52390318  0.85754160  0.49644533  1
  H  H555  1  0.68930231  0.76053333  0.16832688  1
  C  C556  1  0.50112993  0.88211291  0.43580477  1
  C  C557  1  0.97947418  0.91726858  0.16265575  1
  N  N558  1  0.98156965  0.90015627  0.22552131  1
  H  H559  1  0.97197505  0.95756123  0.04925575  1
  H  H560  1  0.92849897  0.88594389  0.14742390  1
  C  C561  1  0.56582163  0.98956207  0.37079085  1
  C  C562  1  0.60345736  0.78463456  0.00223962  1
  N  N563  1  0.98923718  0.78367415  0.70041486  1
  N  N564  1  0.88709738  0.76384301  0.61685619  1
  C  C565  1  0.97026130  0.76896838  0.64423095  1
  Zn  Zn566  1  0.65904947  0.78791411  0.81488386  1
  O  O567  1  0.92308901  0.75678830  0.53063066  1
  N  N568  1  0.90825116  0.88811831  0.76517828  1
  Zn  Zn569  1  0.90085209  0.80912667  0.77494905  1
  C  C570  1  0.99190230  0.96590192  0.76910497  1
  O  O571  1  0.79231516  0.79043484  0.83769044  1
  Zn  Zn572  1  0.80361998  0.92193538  0.71599233  1
  H  H573  1  0.53177879  0.94830386  0.93041556  1
  C  C574  1  0.95776301  0.96268222  0.61023424  1
  N  N575  1  0.74297796  0.86130494  0.65306004  1
  O  O576  1  0.71873113  0.90644444  0.63341859  1
  N  N577  1  0.81360767  0.87594934  0.93867666  1
  N  N578  1  0.77421852  0.78717487  0.76357027  1
  Zn  Zn579  1  0.76628691  0.78036327  0.65980528  1
  Zn  Zn580  1  0.65111209  0.86499270  0.55945659  1
  N  N581  1  0.57717407  0.90624381  0.79370823  1
  N  N582  1  0.55124776  0.81337560  0.76583767  1
  N  N583  1  0.66168716  0.78711176  0.58498652  1
  O  O584  1  0.62906961  0.89414289  0.84625983  1
  N  N585  1  0.87769125  0.97357223  0.64683988  1
  H  H586  1  0.86258369  0.93349735  0.88751638  1
  H  H587  1  0.55243085  0.75820700  0.53232187  1
  H  H588  1  0.56170971  0.81298019  0.97399333  1
  H  H589  1  0.93592186  0.98761159  0.75269400  1
  C  C590  1  0.98038494  0.91305199  0.78171465  1
  N  N591  1  0.76396981  0.98123652  0.77524154  1
  O  O592  1  0.55522167  0.95210249  0.77734127  1
  N  N593  1  0.86191597  0.91500494  0.93792509  1
  O  O594  1  0.82146759  0.99193344  0.84879163  1
  C  C595  1  0.52698130  0.86557395  0.75674061  1
  N  N596  1  0.50527121  0.99080338  0.63319464  1
  H  H597  1  0.98123394  0.88081840  0.63182354  1
  C  C598  1  0.50245339  0.78445086  0.72434440  1
  H  H599  1  0.79762046  0.86369567  0.99181537  1
