# generated using pymatgen
data_ZnH3C5N4
_symmetry_space_group_name_H-M   'P 1'
_cell_length_a   26.49359602
_cell_length_b   14.57723643
_cell_length_c   13.98865661
_cell_angle_alpha   90.00000000
_cell_angle_beta   90.00000000
_cell_angle_gamma   90.00000000
_symmetry_Int_Tables_number   1
_chemical_formula_structural   ZnH3C5N4
_chemical_formula_sum   'Zn32 H96 C160 N128'
_cell_volume   5402.46692481
_cell_formula_units_Z   32
loop_
 _symmetry_equiv_pos_site_id
 _symmetry_equiv_pos_as_xyz
  1  'x, y, z'
loop_
 _atom_site_type_symbol
 _atom_site_label
 _atom_site_symmetry_multiplicity
 _atom_site_fract_x
 _atom_site_fract_y
 _atom_site_fract_z
 _atom_site_occupancy
  H  H0  1  0.15959789  0.11597386  0.16975073  1
  N  N1  1  0.08141992  0.10916310  0.10053533  1
  C  C2  1  0.13198508  0.13644958  0.11522306  1
  N  N3  1  0.05085414  0.12724576  0.37593754  1
  C  C4  1  0.09941702  0.11611302  0.37343463  1
  C  C5  1  0.04102729  0.17916408  0.45662368  1
  H  H6  1  0.22289424  0.07322103  0.10871490  1
  C  C7  1  0.06122838  0.15679187  0.02448408  1
  H  H8  1  0.11708618  0.06731201  0.32158012  1
  N  N9  1  0.12612935  0.15386993  0.45150099  1
  N  N10  1  0.14487663  0.20794124  0.06233676  1
  Zn  Zn11  1  0.04747353  0.01056438  0.18194470  1
  H  H12  1  0.25154225  0.09660243  0.32549724  1
  C  C13  1  0.36275914  0.18593250  0.35026080  1
  N  N14  1  0.29269744  0.02712575  0.09898906  1
  N  N15  1  0.32515456  0.14021290  0.31334209  1
  C  C16  1  0.30557850  0.19754177  0.49503925  1
  N  N17  1  0.26890995  0.15147123  0.45612825  1
  C  C18  1  0.35590576  0.13103229  0.06343408  1
  C  C19  1  0.28353906  0.13056986  0.36755904  1
  C  C20  1  0.31544013  0.20826872  0.07694937  1
  H  H21  1  0.39361293  0.19917525  0.29593385  1
  C  C22  1  0.35439056  0.22532385  0.44556349  1
  N  N23  1  0.26575755  0.19093375  0.07942268  1
  C  C24  1  0.26197291  0.09976745  0.09312203  1
  N  N25  1  0.40374618  0.16426404  0.03530417  1
  C  C26  1  0.34179891  0.03823493  0.08279413  1
  N  N27  1  0.18084724  0.07123037  0.93932031  1
  C  C28  1  0.13055307  0.06977194  0.80412296  1
  C  C29  1  0.17595761  0.10127355  0.74560195  1
  N  N30  1  0.22112622  0.12452804  0.78376891  1
  N  N31  1  0.15590431  0.10067728  0.65323288  1
  C  C32  1  0.10617885  0.07696437  0.65957802  1
  C  C33  1  0.13505628  0.05920483  0.90435403  1
  C  C34  1  0.21653307  0.10160629  0.87736876  1
  N  N35  1  0.08574600  0.06094811  0.74777689  1
  H  H36  1  0.08467652  0.05982232  0.59390292  1
  N  N37  1  0.02212864  0.17538418  0.96738174  1
  H  H38  1  0.10724765  0.03613412  0.95825628  1
  Zn  Zn39  1  0.19743890  0.12525799  0.52528902  1
  C  C40  1  0.02856801  0.23456653  0.89246253  1
  C  C41  1  0.09044941  0.24632103  0.59617740  1
  C  C42  1  0.08936756  0.19703470  0.50673779  1
  C  C43  1  0.10608513  0.22209178  0.99996534  1
  H  H44  1  0.25251022  0.10587793  0.92062204  1
  H  H45  1  0.33592483  0.06022318  0.55941883  1
  C  C46  1  0.42368116  0.04110272  0.76104535  1
  N  N47  1  0.42970951  0.10436631  0.82872630  1
  C  C48  1  0.37916078  0.07513832  0.70067162  1
  Zn  Zn49  1  0.46505277  0.09370770  0.96844987  1
  N  N50  1  0.31207466  0.24013369  0.58721325  1
  Zn  Zn51  1  0.28311236  0.19811603  0.71758065  1
  H  H52  1  0.35495498  0.01188234  0.84915006  1
  C  C53  1  0.36177044  0.02872904  0.61614828  1
  H  H54  1  0.38614444  0.22010907  0.86563068  1
  N  N55  1  0.35977382  0.15514404  0.73910968  1
  C  C56  1  0.39542043  0.17072407  0.81056107  1
  N  N57  1  0.18858071  0.41733530  0.10817192  1
  H  H58  1  0.11050294  0.40754473  0.12047767  1
  C  C59  1  0.14185728  0.45378818  0.13384606  1
  Zn  Zn60  1  0.20547493  0.28024812  0.07436355  1
  C  C61  1  0.21995140  0.49086750  0.13405752  1
  C  C62  1  0.48721203  0.47957979  0.32670210  1
  N  N63  1  0.38443341  0.49246778  0.13182074  1
  Zn  Zn64  1  0.32500840  0.41704488  0.08981176  1
  N  N65  1  0.44806916  0.42272989  0.35352287  1
  C  C66  1  0.41342089  0.47874442  0.21008716  1
  H  H67  1  0.37760768  0.37679040  0.30867019  1
  C  C68  1  0.40815761  0.42269172  0.29336500  1
  Zn  Zn69  1  0.44398192  0.34740499  0.46895570  1
  H  H70  1  0.42668593  0.30894806  0.03768067  1
  N  N71  1  0.34664617  0.28268390  0.06516129  1
  N  N72  1  0.38192513  0.28653546  0.49982771  1
  C  C73  1  0.39557980  0.25506609  0.05187500  1
  C  C74  1  0.19681471  0.32243722  0.74657931  1
  C  C75  1  0.17340563  0.40278569  0.77529907  1
  Zn  Zn76  1  0.05974117  0.37377467  0.75464571  1
  N  N77  1  0.12788357  0.44182057  0.77918091  1
  H  H78  1  0.13731519  0.34257740  0.90008264  1
  N  N79  1  0.06722026  0.28781785  0.86667221  1
  N  N80  1  0.05003441  0.28300485  0.63310237  1
  C  C81  1  0.10739715  0.29007106  0.92272609  1
  C  C82  1  0.20938750  0.48602089  0.80805752  1
  C  C83  1  0.00921705  0.25497658  0.58445780  1
  H  H84  1  0.12510607  0.26535077  0.63627021  1
  N  N85  1  0.24721817  0.31875859  0.75629827  1
  H  H86  1  0.17864001  0.25700614  0.73058628  1
  H  H87  1  0.36282628  0.37932645  0.94598163  1
  N  N88  1  0.37099440  0.49946271  0.86338251  1
  H  H89  1  0.31394010  0.38967344  0.80226985  1
  C  C90  1  0.35633128  0.29570703  0.58066737  1
  H  H91  1  0.37904409  0.33086929  0.63851167  1
  C  C92  1  0.45850854  0.47407691  0.83043467  1
  N  N93  1  0.43811438  0.39841700  0.88142970  1
  C  C94  1  0.38967364  0.41887395  0.89991382  1
  N  N95  1  0.26010186  0.47734844  0.82405569  1
  C  C96  1  0.27138289  0.39506289  0.79230256  1
  C  C97  1  0.21886239  0.63896298  0.23085966  1
  Zn  Zn98  1  0.08080428  0.62014455  0.21046057  1
  C  C99  1  0.19251794  0.56309217  0.18378929  1
  N  N100  1  0.07904504  0.71190804  0.08806343  1
  N  N101  1  0.14115067  0.53693137  0.17766510  1
  H  H102  1  0.19893515  0.69667025  0.26120229  1
  H  H103  1  0.02060845  0.64573936  0.41236623  1
  H  H104  1  0.14609832  0.66657618  0.03649933  1
  C  C105  1  0.11372095  0.71471098  0.02125788  1
  N  N106  1  0.01321727  0.59304521  0.26903194  1
  H  H107  1  0.14458267  0.56391935  0.49428560  1
  N  N108  1  0.13346299  0.70690565  0.48169387  1
  C  C109  1  0.40785005  0.55395613  0.07571773  1
  N  N110  1  0.26661012  0.65767883  0.22158299  1
  N  N111  1  0.27223863  0.50991115  0.12985968  1
  C  C112  1  0.46320164  0.53596849  0.19534768  1
  H  H113  1  0.49201266  0.66387866  0.40973337  1
  C  C114  1  0.28780589  0.59056930  0.16805772  1
  N  N115  1  0.45323760  0.58272903  0.10965236  1
  H  H116  1  0.32992583  0.59831546  0.16045314  1
  H  H117  1  0.39506395  0.57390305  0.00210548  1
  H  H118  1  0.09704432  0.56927132  0.81647519  1
  N  N119  1  0.17998695  0.56211615  0.82446500  1
  Zn  Zn120  1  0.20927154  0.70807669  0.81776407  1
  C  C121  1  0.13212137  0.52903201  0.81105116  1
  N  N122  1  0.07110686  0.61435265  0.53106698  1
  H  H123  1  0.01218695  0.52545361  0.63699971  1
  C  C124  1  0.05111025  0.70032123  0.54505655  1
  H  H125  1  0.19107293  0.72809752  0.62042683  1
  C  C126  1  0.23234302  0.73383659  0.60741513  1
  N  N127  1  0.24397878  0.74666352  0.50999212  1
  N  N128  1  0.00565572  0.73355567  0.57117678  1
  C  C129  1  0.12095971  0.62277919  0.50498453  1
  C  C130  1  0.41487792  0.61572539  0.75055811  1
  C  C131  1  0.41009340  0.53432255  0.81265636  1
  Zn  Zn132  1  0.31045813  0.56874032  0.88211859  1
  C  C133  1  0.49542726  0.56711838  0.73406698  1
  C  C134  1  0.30469195  0.74080417  0.67046226  1
  N  N135  1  0.33756040  0.70126476  0.90407125  1
  N  N136  1  0.25532616  0.72226617  0.68835130  1
  H  H137  1  0.38345739  0.66127755  0.72419678  1
  C  C138  1  0.33126559  0.74555687  0.58182229  1
  H  H139  1  0.41546080  0.67988696  0.94332299  1
  Zn  Zn140  1  0.45281290  0.72032367  0.60105865  1
  N  N141  1  0.45761156  0.62609154  0.70887960  1
  C  C142  1  0.38297810  0.72467116  0.92314892  1
  C  C143  1  0.14847308  0.91088255  0.15156339  1
  C  C144  1  0.18855148  0.86621770  0.21951834  1
  N  N145  1  0.16470377  0.84700923  0.30696179  1
  N  N146  1  0.10995320  0.92767089  0.21083774  1
  C  C147  1  0.11902329  0.88649069  0.29725190  1
  H  H148  1  0.08994978  0.88057955  0.35343443  1
  C  C149  1  0.16228784  0.91477506  0.05334277  1
  N  N150  1  0.20787635  0.87951470  0.02993531  1
  N  N151  1  0.23718324  0.84340845  0.19500238  1
  C  C152  1  0.23861920  0.85350670  0.10096511  1
  Zn  Zn153  1  0.18933126  0.76403778  0.40972461  1
  C  C154  1  0.04269472  0.76812954  0.07337219  1
  H  H155  1  0.11315746  0.91987716  0.49558299  1
  H  H156  1  0.00742443  0.76134089  0.12360765  1
  N  N157  1  0.03151747  0.83084460  0.00036454  1
  H  H158  1  0.49435312  0.75936127  0.12360281  1
  N  N159  1  0.48032718  0.97139372  0.22872709  1
  N  N160  1  0.43606443  0.98079779  0.38770918  1
  N  N161  1  0.36279010  0.84334382  0.22240902  1
  C  C162  1  0.38130076  0.83369006  0.13463235  1
  H  H163  1  0.36702770  0.79190768  0.07492197  1
  H  H164  1  0.27454643  0.82350063  0.07536351  1
  H  H165  1  0.36859117  0.97993216  0.08417334  1
  N  N166  1  0.42402089  0.88331090  0.11225706  1
  H  H167  1  0.36616986  0.93080220  0.41929165  1
  C  C168  1  0.39670101  0.93288934  0.36584154  1
  Zn  Zn169  1  0.29699879  0.78348558  0.27474874  1
  C  C170  1  0.39660288  0.89912722  0.26760399  1
  C  C171  1  0.44051513  0.92432957  0.19954268  1
  N  N172  1  0.32388564  0.77488979  0.41693181  1
  H  H173  1  0.40613126  0.78641213  0.40588535  1
  C  C174  1  0.29666390  0.75607554  0.49773026  1
  C  C175  1  0.37257755  0.77525102  0.45099872  1
  C  C176  1  0.47388897  0.99064919  0.32207683  1
  H  H177  1  0.12760117  0.87411630  0.73931168  1
  C  C178  1  0.11072184  0.84486148  0.80109903  1
  N  N179  1  0.06899149  0.88247473  0.83795001  1
  C  C180  1  0.06658673  0.83370229  0.92456886  1
  H  H181  1  0.21470526  0.92408505  0.85337031  1
  N  N182  1  0.13752049  0.77748339  0.85169990  1
  Zn  Zn183  1  0.02252238  0.98620686  0.78863824  1
  C  C184  1  0.10929622  0.76707028  0.93502685  1
  C  C185  1  0.09557669  0.76368587  0.51351373  1
  N  N186  1  0.04268603  0.89209860  0.54298868  1
  C  C187  1  0.08729850  0.86110541  0.51781260  1
  C  C188  1  0.00970608  0.82520174  0.56797296  1
  H  H189  1  0.14185051  0.94459405  0.99205731  1
  H  H190  1  0.32287642  0.75321450  0.74144613  1
  N  N191  1  0.28299205  0.96945433  0.85742369  1
  N  N192  1  0.44615923  0.96365144  0.71973378  1
  C  C193  1  0.25463978  0.90022346  0.86178659  1
  N  N194  1  0.38346761  0.95531179  0.58701949  1
  N  N195  1  0.26077094  0.80443065  0.86533696  1
  C  C196  1  0.33131233  0.94975075  0.86557296  1
  C  C197  1  0.34793447  0.85943639  0.88821272  1
  N  N198  1  0.39488649  0.82087530  0.91085066  1
  H  H199  1  0.43871854  0.87287900  0.60185986  1
  Zn  Zn200  1  0.45159808  0.89663602  0.97675995  1
  C  C201  1  0.31127610  0.78186158  0.88868951  1
  C  C202  1  0.41964203  0.93015551  0.64239691  1
  N  N203  1  0.38040689  0.75291249  0.54405163  1
  H  H204  1  0.64133972  0.10672627  0.22236242  1
  N  N205  1  0.57941412  0.11819346  0.12294789  1
  C  C206  1  0.62117725  0.14799557  0.16316415  1
  H  H207  1  0.72354141  0.09602999  0.11328542  1
  C  C208  1  0.57191082  0.17877960  0.04491182  1
  N  N209  1  0.64376553  0.22628618  0.12689325  1
  C  C210  1  0.70776774  0.23811072  0.40510304  1
  H  H211  1  0.50887659  0.01778393  0.34991179  1
  N  N212  1  0.73793179  0.24007633  0.33272666  1
  Zn  Zn213  1  0.96076432  0.11928193  0.00025674  1
  C  C214  1  0.78386237  0.20939537  0.35874883  1
  N  N215  1  0.90501601  0.17871073  0.09543120  1
  C  C216  1  0.85941017  0.13987510  0.10772179  1
  N  N217  1  0.77013596  0.20196828  0.14089246  1
  C  C218  1  0.82005206  0.21963260  0.12939174  1
  N  N219  1  0.97376721  0.00777157  0.22393377  1
  C  C220  1  0.96081842  0.06166350  0.29865564  1
  H  H221  1  0.99289976  0.11526751  0.32073833  1
  N  N222  1  0.79247120  0.03834443  0.09611713  1
  N  N223  1  0.92048825  0.06127172  0.35751845  1
  Zn  Zn224  1  0.92306350  0.16560764  0.45074893  1
  C  C225  1  0.76453793  0.11480422  0.11204279  1
  C  C226  1  0.84143623  0.04833753  0.09628920  1
  N  N227  1  0.85055006  0.20501410  0.49913064  1
  C  C228  1  0.80242559  0.21247341  0.45452657  1
  H  H229  1  0.80592889  0.21035073  0.29285130  1
  C  C230  1  0.69819830  0.06582375  0.89482809  1
  C  C231  1  0.61111351  0.04982249  0.81072687  1
  C  C232  1  0.65431505  0.11502886  0.77709313  1
  N  N233  1  0.62925416  0.15540373  0.69751378  1
  C  C234  1  0.58213400  0.11731548  0.69196314  1
  N  N235  1  0.69886162  0.12049412  0.81425338  1
  H  H236  1  0.55766414  0.12984250  0.62819420  1
  N  N237  1  0.56691774  0.05118648  0.75521783  1
  H  H238  1  0.54190509  0.22706051  0.52338213  1
  N  N239  1  0.53417469  0.17565069  0.98213486  1
  N  N240  1  0.66541672  0.00978118  0.93882711  1
  Zn  Zn241  1  0.65483735  0.24053016  0.59249438  1
  C  C242  1  0.54154996  0.24714939  0.92436713  1
  C  C243  1  0.61958051  0.00046363  0.89533434  1
  N  N244  1  0.71486588  0.22220110  0.50489770  1
  H  H245  1  0.73406560  0.07344601  0.93117151  1
  H  H246  1  0.99220702  0.24779935  0.85344222  1
  C  C247  1  0.76587526  0.21598507  0.53526423  1
  N  N248  1  0.95228283  0.01115255  0.75993234  1
  H  H249  1  0.86153702  0.01050021  0.90547170  1
  C  C250  1  0.84969738  0.03622167  0.67022662  1
  N  N251  1  0.91213358  0.11931503  0.88437985  1
  H  H252  1  0.85601550  0.21111680  0.93586523  1
  H  H253  1  0.81854905  0.04425848  0.61367599  1
  C  C254  1  0.86475327  0.08009938  0.75816915  1
  C  C255  1  0.91659677  0.06241141  0.80188146  1
  Zn  Zn256  1  0.76078069  0.20282251  0.76699446  1
  C  C257  1  0.86665974  0.16534796  0.87782775  1
  H  H258  1  0.86844932  0.19250423  0.65209156  1
  N  N259  1  0.78933232  0.20824272  0.62290113  1
  N  N260  1  0.83540525  0.14629990  0.80528249  1
  C  C261  1  0.83831503  0.20598930  0.59463565  1
  N  N262  1  0.99753134  0.21017076  0.50326129  1
  H  H263  1  0.60690630  0.41523308  0.17489790  1
  N  N264  1  0.69090309  0.42127859  0.18176362  1
  C  C265  1  0.64321532  0.45809032  0.18263515  1
  Zn  Zn266  1  0.71405581  0.28612901  0.19121678  1
  H  H267  1  0.52116836  0.48728437  0.37531878  1
  H  H268  1  0.66804807  0.25571444  0.38570853  1
  C  C269  1  0.61583899  0.25395184  0.04886371  1
  C  C270  1  0.72075825  0.49726449  0.19568917  1
  H  H271  1  0.92751211  0.31612065  0.10992207  1
  N  N272  1  0.84883378  0.29731121  0.14595916  1
  C  C273  1  0.89671729  0.26653882  0.12791555  1
  Zn  Zn274  1  0.82790455  0.42600021  0.17895195  1
  H  H275  1  0.92850375  0.49148931  0.02665976  1
  C  C276  1  0.69186718  0.34494720  0.80527234  1
  Zn  Zn277  1  0.56031754  0.41671492  0.81559437  1
  C  C278  1  0.67754046  0.43876216  0.82718516  1
  C  C279  1  0.59688447  0.41743919  0.56891985  1
  N  N280  1  0.57461208  0.32003906  0.91823083  1
  H  H281  1  0.66776517  0.28601626  0.78232987  1
  N  N282  1  0.63031706  0.47771251  0.81938935  1
  N  N283  1  0.59892377  0.32369983  0.55928186  1
  N  N284  1  0.73974682  0.33043737  0.81454440  1
  C  C285  1  0.54349335  0.45087918  0.54885411  1
  H  H286  1  0.67837562  0.47751270  0.60320164  1
  H  H287  1  0.63628211  0.38475564  0.97746614  1
  C  C288  1  0.55262947  0.29816700  0.53668502  1
  C  C289  1  0.63638418  0.48563565  0.58938367  1
  N  N290  1  0.51573591  0.36955044  0.52987328  1
  C  C291  1  0.61254801  0.32216031  0.98585683  1
  N  N292  1  0.50277415  0.49177084  0.78905923  1
  H  H293  1  0.51016004  0.25648218  0.87341720  1
  C  C294  1  0.90871006  0.49388012  0.80336108  1
  C  C295  1  0.89574229  0.39507604  0.92021225  1
  N  N296  1  0.76510444  0.48279339  0.88026791  1
  N  N297  1  0.87470451  0.47535132  0.87522347  1
  C  C298  1  0.95461077  0.43430359  0.82119363  1
  C  C299  1  0.76992834  0.39618634  0.85373961  1
  N  N300  1  0.94296591  0.37475907  0.89074603  1
  N  N301  1  0.99413748  0.45344703  0.75580894  1
  H  H302  1  0.81191974  0.37199408  0.86414146  1
  H  H303  1  0.97578478  0.27824298  0.62613862  1
  H  H304  1  0.87752747  0.35367176  0.97884636  1
  C  C305  1  0.70777426  0.66633247  0.23271491  1
  N  N306  1  0.55261857  0.69699879  0.08985429  1
  Zn  Zn307  1  0.56090345  0.62144441  0.23546236  1
  C  C308  1  0.68688774  0.57889809  0.20960146  1
  H  H309  1  0.61574035  0.63379675  0.04723765  1
  N  N310  1  0.63682010  0.54872402  0.20159867  1
  N  N311  1  0.55763372  0.70934694  0.36419203  1
  C  C312  1  0.52264944  0.71387393  0.43026025  1
  C  C313  1  0.58554002  0.68201251  0.02286430  1
  H  H314  1  0.68786300  0.73124388  0.24238209  1
  N  N315  1  0.50272083  0.53283688  0.25549927  1
  H  H316  1  0.62842372  0.74960753  0.34607545  1
  N  N317  1  0.89777047  0.50623829  0.17760973  1
  C  C318  1  0.93238970  0.51348115  0.09965085  1
  C  C319  1  0.99528618  0.61304479  0.36134598  1
  N  N320  1  0.95304019  0.60488229  0.41201225  1
  N  N321  1  0.97831437  0.54133674  0.11791360  1
  C  C322  1  0.78231457  0.60675420  0.22532033  1
  H  H323  1  0.82300361  0.61928856  0.23304956  1
  C  C324  1  0.92371497  0.54630319  0.25256984  1
  N  N325  1  0.77250596  0.51536475  0.19855359  1
  H  H326  1  0.88260394  0.57127306  0.39363801  1
  C  C327  1  0.97437828  0.56203926  0.21029298  1
  N  N328  1  0.75704875  0.68159493  0.24258430  1
  C  C329  1  0.91788568  0.57058482  0.35109324  1
  H  H330  1  0.89952573  0.74458885  0.37212090  1
  H  H331  1  0.60430795  0.60931268  0.84890894  1
  N  N332  1  0.68849440  0.58984101  0.86198916  1
  C  C333  1  0.63886012  0.56621653  0.83567454  1
  H  H334  1  0.53219520  0.57487502  0.69631622  1
  Zn  Zn335  1  0.70565674  0.71978832  0.90864842  1
  N  N336  1  0.62219755  0.57003934  0.58188083  1
  C  C337  1  0.57246681  0.58197514  0.55891480  1
  C  C338  1  0.58908789  0.73749585  0.93678819  1
  H  H339  1  0.56173579  0.65785737  0.55953350  1
  N  N340  1  0.53054570  0.53640092  0.54337529  1
  N  N341  1  0.62736085  0.74443398  0.86915374  1
  C  C342  1  0.71668088  0.50791864  0.86135702  1
  C  C343  1  0.90625212  0.56117962  0.73011350  1
  C  C344  1  0.98022665  0.51632066  0.68689558  1
  C  C345  1  0.89004308  0.72445897  0.91311532  1
  H  H346  1  0.87136817  0.59897782  0.71213214  1
  N  N347  1  0.94231667  0.56888149  0.66218027  1
  H  H348  1  0.91999702  0.67038188  0.91182051  1
  N  N349  1  0.84263429  0.69914870  0.91258513  1
  Zn  Zn350  1  0.93910986  0.65954002  0.55503888  1
  Zn  Zn351  1  0.81957639  0.57204914  0.92109853  1
  H  H352  1  0.85245947  0.72729332  0.71917964  1
  N  N353  1  0.88010383  0.73447397  0.51143125  1
  N  N354  1  0.69175974  0.81319742  0.04163105  1
  C  C355  1  0.64983724  0.85191915  0.07461658  1
  C  C356  1  0.64511958  0.90236043  0.16163191  1
  C  C357  1  0.68887807  0.90664978  0.23001165  1
  N  N358  1  0.67408282  0.92857990  0.32082111  1
  N  N359  1  0.73187231  0.85918023  0.19486669  1
  N  N360  1  0.60780590  0.94248462  0.21314949  1
  C  C361  1  0.62667084  0.95383611  0.31038790  1
  C  C362  1  0.72612224  0.81878951  0.10672729  1
  Zn  Zn363  1  0.70558292  0.91076919  0.45070049  1
  C  C364  1  0.59608227  0.82000207  0.47111981  1
  C  C365  1  0.59724638  0.75824549  0.39404580  1
  H  H366  1  0.60539324  0.97888402  0.37162726  1
  C  C367  1  0.51881836  0.75612973  0.06126961  1
  Zn  Zn368  1  0.54292435  0.99678510  0.15337527  1
  H  H369  1  0.61660318  0.83785078  0.03058377  1
  H  H370  1  0.85927282  0.99633521  0.40595763  1
  H  H371  1  0.86372313  0.98423051  0.09693803  1
  H  H372  1  0.87310847  0.78553073  0.08909919  1
  C  C373  1  0.87002629  0.76381708  0.42451651  1
  C  C374  1  0.89460127  0.93299294  0.26775059  1
  H  H375  1  0.75746229  0.77698668  0.08196015  1
  C  C376  1  0.88990304  0.83270443  0.14485857  1
  N  N377  1  0.86562224  0.86472493  0.22476320  1
  Zn  Zn378  1  0.79392390  0.82238608  0.27893411  1
  N  N379  1  0.82250588  0.80416464  0.40895264  1
  N  N380  1  0.93371817  0.87599771  0.12641727  1
  C  C381  1  0.93748295  0.93397737  0.20146925  1
  C  C382  1  0.88608267  0.99893532  0.34419131  1
  H  H383  1  0.63060975  0.82693327  0.74391538  1
  C  C384  1  0.60639136  0.80179659  0.80192584  1
  N  N385  1  0.55915247  0.83550690  0.81999580  1
  N  N386  1  0.56557471  0.87545476  0.61582308  1
  C  C387  1  0.61300622  0.90391184  0.59672628  1
  H  H388  1  0.71610620  0.91755591  0.89840561  1
  C  C389  1  0.54784555  0.80361766  0.90843279  1
  Zn  Zn390  1  0.52237320  0.92753559  0.73340724  1
  H  H391  1  0.63114739  0.94884621  0.64811938  1
  C  C392  1  0.55391226  0.81992341  0.54214217  1
  H  H393  1  0.71552647  0.84769904  0.65520951  1
  H  H394  1  0.59454319  0.95856112  0.93833293  1
  N  N395  1  0.63486596  0.87440662  0.51281689  1
  N  N396  1  0.51422583  0.75972310  0.51517911  1
  N  N397  1  0.51308002  0.81253503  0.98466422  1
  N  N398  1  0.88299683  0.97695713  0.63914103  1
  H  H399  1  0.95293199  0.92244547  0.65207095  1
  C  C400  1  0.75353186  0.82937379  0.62646217  1
  H  H401  1  0.96919905  0.84069998  0.57105124  1
  C  C402  1  0.75567257  0.89622463  0.90277817  1
  N  N403  1  0.90225949  0.82032560  0.92391655  1
  N  N404  1  0.76560627  0.80731568  0.90435192  1
  C  C405  1  0.82691401  0.75420526  0.66678672  1
  C  C406  1  0.81605166  0.78182266  0.90505127  1
  N  N407  1  0.75694680  0.84945668  0.53339118  1
  C  C408  1  0.83801329  0.76556240  0.56676805  1
  Zn  Zn409  1  0.96629428  0.88123881  0.99191968  1
  C  C410  1  0.85424522  0.85699945  0.91291196  1
  N  N411  1  0.78894147  0.96790404  0.90566624  1
  C  C412  1  0.92743796  0.96855712  0.68847490  1
  N  N413  1  0.78263198  0.78887112  0.69425289  1
  C  C414  1  0.83779601  0.94908004  0.91410832  1
  C  C415  1  0.80050145  0.81140673  0.50449315  1
