# generated using pymatgen
data_Zn5H26(C21O10)2
_symmetry_space_group_name_H-M   'P 1'
_cell_length_a   8.10173890
_cell_length_b   16.41351545
_cell_length_c   16.33137751
_cell_angle_alpha   90.00000000
_cell_angle_beta   90.00000000
_cell_angle_gamma   90.00000000
_symmetry_Int_Tables_number   1
_chemical_formula_structural   Zn5H26(C21O10)2
_chemical_formula_sum   'Zn10 H52 C84 O40'
_cell_volume   2171.71419074
_cell_formula_units_Z   2
loop_
 _symmetry_equiv_pos_site_id
 _symmetry_equiv_pos_as_xyz
  1  'x, y, z'
loop_
 _atom_site_type_symbol
 _atom_site_label
 _atom_site_symmetry_multiplicity
 _atom_site_fract_x
 _atom_site_fract_y
 _atom_site_fract_z
 _atom_site_occupancy
  C  C0  1  0.43402143  0.17879969  0.06737097  1
  H  H1  1  0.21731006  0.40151408  0.17953242  1
  C  C2  1  0.34297641  0.48813100  0.10420287  1
  C  C3  1  0.41331151  0.22669557  0.13721678  1
  O  O4  1  0.40065608  0.44121163  0.04453777  1
  C  C5  1  0.25368851  0.46472428  0.17454505  1
  H  H6  1  0.40662101  0.34684130  0.19187679  1
  C  C7  1  0.40427097  0.35014774  0.05625981  1
  C  C8  1  0.40277020  0.31209034  0.13537266  1
  H  H9  1  0.43292118  0.19527224  0.19550339  1
  Zn  Zn10  1  0.31397284  0.00932558  0.22392752  1
  C  C11  1  0.46470047  0.08917890  0.06590721  1
  H  H12  1  0.12802171  0.44233937  0.02281179  1
  O  O13  1  0.47955480  0.04846220  0.13263973  1
  H  H14  1  0.16331490  0.25495224  0.31764576  1
  O  O15  1  0.44221150  0.02887766  0.34325112  1
  O  O16  1  0.13465842  0.10642699  0.26926601  1
  C  C17  1  0.33832165  0.07966076  0.47015566  1
  C  C18  1  0.36070537  0.01223164  0.40541035  1
  O  O19  1  0.08397603  0.48650726  0.30377916  1
  C  C20  1  0.42573750  0.15396233  0.46573589  1
  H  H21  1  0.09756973  0.36429169  0.40899139  1
  C  C22  1  0.01134011  0.16904748  0.38009729  1
  C  C23  1  0.03334079  0.30656253  0.42380265  1
  C  C24  1  0.07650548  0.24754942  0.36813612  1
  C  C25  1  0.02723512  0.09775269  0.32394330  1
  O  O26  1  0.25265139  0.26852530  0.65053502  1
  H  H27  1  0.24245980  0.12197888  0.72501562  1
  H  H28  1  0.15612850  0.00603604  0.54240764  1
  C  C29  1  0.28863950  0.20296923  0.59136802  1
  C  C30  1  0.21253462  0.12732461  0.59025570  1
  C  C31  1  0.20017529  0.25084099  0.72704704  1
  C  C32  1  0.22678308  0.06456955  0.53222564  1
  H  H33  1  0.11875907  0.12091114  0.64123679  1
  C  C34  1  0.40159050  0.21366962  0.52519240  1
  H  H35  1  0.34214739  0.37887643  0.58782740  1
  O  O36  1  0.38301545  0.40109103  0.53936514  1
  H  H37  1  0.28835909  0.43553275  0.52491244  1
  H  H38  1  0.46996085  0.27226319  0.51908640  1
  O  O39  1  0.04866353  0.34636456  0.92243103  1
  C  C40  1  0.15257465  0.30904578  0.78546763  1
  C  C41  1  0.09557395  0.21078103  0.88923980  1
  O  O42  1  0.15959888  0.00634347  0.80795982  1
  O  O43  1  0.46426467  0.41375653  0.77305518  1
  C  C44  1  0.14229020  0.06019712  0.86142640  1
  C  C45  1  0.14265716  0.15037001  0.83582926  1
  C  C46  1  0.09511913  0.29524898  0.86544594  1
  O  O47  1  0.13401038  0.04846711  0.93657395  1
  H  H48  1  0.06823253  0.19279372  0.95229559  1
  H  H49  1  0.37607704  0.33184992  0.92582197  1
  H  H50  1  0.42082455  0.18249497  0.93081203  1
  C  C51  1  0.06999735  0.48071526  0.97683493  1
  H  H52  1  0.16012992  0.37199959  0.76759012  1
  C  C53  1  0.40055559  0.30173349  0.98757757  1
  C  C54  1  0.41772717  0.21505439  0.98992684  1
  C  C55  1  0.46840348  0.49493704  0.76835932  1
  C  C56  1  0.02422706  0.43273337  0.91060793  1
  C  C57  1  0.20104814  0.17127589  0.75921868  1
  O  O58  1  0.47909026  0.05544808  0.99821652  1
  O  O59  1  0.25914123  0.76881233  0.19161550  1
  H  H60  1  0.42899248  0.60087596  0.04706977  1
  H  H61  1  0.12580614  0.59709276  0.03734008  1
  C  C62  1  0.20336298  0.60058141  0.21917292  1
  C  C63  1  0.35934728  0.57487223  0.09979279  1
  C  C64  1  0.30159517  0.62951995  0.15458748  1
  C  C65  1  0.32484071  0.72075767  0.14456820  1
  O  O66  1  0.41249568  0.74206393  0.08384825  1
  O  O67  1  0.10691467  0.94739825  0.17329161  1
  H  H68  1  0.05359755  0.99435537  0.19640621  1
  Zn  Zn69  1  0.01329563  0.81365747  0.20714962  1
  C  C70  1  0.18808004  0.51744039  0.23110710  1
  C  C71  1  0.17877379  0.63890336  0.46338300  1
  C  C72  1  0.08195657  0.53005134  0.37177984  1
  H  H73  1  0.27000312  0.68479235  0.47965460  1
  O  O74  1  0.29598054  0.94301506  0.41524683  1
  H  H75  1  0.30226346  0.59974526  0.35006191  1
  C  C76  1  0.19193963  0.59266618  0.39077372  1
  H  H77  1  0.16099649  0.64725167  0.26578830  1
  Zn  Zn78  1  0.03161093  0.93656081  0.40618797  1
  O  O79  1  0.14002896  0.73072157  0.61834192  1
  C  C80  1  0.05505982  0.66654450  0.60765347  1
  C  C81  1  0.06974603  0.61841321  0.52663995  1
  Zn  Zn82  1  0.08602598  0.77047959  0.74519906  1
  H  H83  1  0.41896756  0.72808230  0.59596913  1
  H  H84  1  0.21320610  0.65048341  0.83787853  1
  O  O85  1  0.30877221  0.79056134  0.82310019  1
  C  C86  1  0.44371441  0.66596588  0.76975322  1
  C  C87  1  0.31846018  0.61881698  0.80755839  1
  Zn  Zn88  1  0.32154163  0.79276614  0.96245119  1
  C  C89  1  0.43464652  0.75703203  0.78494239  1
  C  C90  1  0.33378811  0.53745963  0.80394034  1
  O  O91  1  0.16357605  0.89231592  0.98074167  1
  H  H92  1  0.17402530  0.92575015  0.93737770  1
  C  C93  1  0.07030604  0.56508514  0.98311553  1
  O  O94  1  0.07804134  0.72550793  0.96568192  1
  H  H95  1  0.24136119  0.50146803  0.83438437  1
  C  C96  1  0.00255840  0.60047376  0.91229368  1
  C  C97  1  0.00249983  0.68953985  0.90871170  1
  C  C98  1  0.85431232  0.13684267  0.07044204  1
  O  O99  1  0.89564812  0.07239796  0.10205344  1
  H  H100  1  0.74986801  0.31581260  0.03938792  1
  C  C101  1  0.80583863  0.20394469  0.12505538  1
  C  C102  1  0.80592808  0.18395448  0.20822112  1
  C  C103  1  0.75786094  0.28304572  0.10192440  1
  C  C104  1  0.70725048  0.32126467  0.17124490  1
  H  H105  1  0.85133000  0.12409847  0.22837050  1
  H  H106  1  0.74711840  0.46294643  0.20769621  1
  C  C107  1  0.63533713  0.44814167  0.32481115  1
  C  C108  1  0.69680906  0.31499021  0.25364236  1
  H  H109  1  0.74856972  0.21580726  0.33532476  1
  O  O110  1  0.62365656  0.36799995  0.32872295  1
  H  H111  1  0.87257085  0.46334066  0.42695566  1
  H  H112  1  0.86143907  0.09484408  0.46334975  1
  C  C113  1  0.90623332  0.15469297  0.44779673  1
  O  O114  1  0.94793644  0.03039326  0.32938631  1
  C  C115  1  0.75258218  0.23572155  0.26998314  1
  C  C116  1  0.57235651  0.49271858  0.39188718  1
  C  C117  1  0.92005764  0.30020260  0.48970134  1
  C  C118  1  0.85883150  0.21942016  0.49721617  1
  H  H119  1  0.52922316  0.45968266  0.44526055  1
  H  H120  1  0.51200578  0.16276099  0.41721308  1
  C  C121  1  0.69710762  0.49603660  0.25906055  1
  O  O122  1  0.89201875  0.35989944  0.54654501  1
  C  C123  1  0.68068092  0.38580866  0.66081364  1
  O  O124  1  0.88618390  0.10493552  0.72947532  1
  H  H125  1  0.76978108  0.20209100  0.54170117  1
  H  H126  1  0.65977705  0.44935475  0.63197916  1
  C  C127  1  0.80440854  0.33910591  0.62376700  1
  C  C128  1  0.83084947  0.26235669  0.65882083  1
  C  C129  1  0.74690584  0.23367363  0.72829009  1
  H  H130  1  0.92222981  0.22275124  0.62994764  1
  C  C131  1  0.59308927  0.36226880  0.73103054  1
  O  O132  1  0.66807049  0.12093631  0.80894881  1
  H  H133  1  0.54897711  0.26638803  0.81518106  1
  Zn  Zn134  1  0.70173351  0.05882306  0.91901161  1
  C  C135  1  0.62129382  0.28620805  0.76064643  1
  C  C136  1  0.94522201  0.47412059  0.84772211  1
  H  H137  1  0.88878787  0.44208278  0.79799262  1
  C  C138  1  0.76818593  0.14829459  0.75671356  1
  O  O139  1  0.83676621  0.14414982  0.99146045  1
  C  C140  1  0.77363997  0.63599077  0.19669253  1
  Zn  Zn141  1  0.69132965  0.75482194  0.07043542  1
  O  O142  1  0.77958571  0.71283650  0.21276766  1
  O  O143  1  0.81065743  0.61394282  0.12848020  1
  O  O144  1  0.87812660  0.83495823  0.09243782  1
  H  H145  1  0.95913007  0.82990702  0.04787323  1
  H  H146  1  0.61041008  0.86149429  0.00180381  1
  Zn  Zn147  1  0.99849567  0.95927952  0.04315120  1
  C  C148  1  0.74029956  0.71164604  0.46406299  1
  C  C149  1  0.69676812  0.58100443  0.26099456  1
  H  H150  1  0.80212845  0.67048510  0.42185433  1
  C  C151  1  0.63311077  0.61564182  0.33200390  1
  C  C152  1  0.57241173  0.57325428  0.40173134  1
  H  H153  1  0.65113454  0.68139893  0.33711541  1
  H  H154  1  0.91511678  0.79101135  0.33932874  1
  C  C155  1  0.83173214  0.77945722  0.48738312  1
  O  O156  1  0.97889502  0.83773470  0.32645933  1
  C  C157  1  0.95949362  0.51398497  0.43315532  1
  O  O158  1  0.51223244  0.61832420  0.47777554  1
  H  H159  1  0.94498076  0.80048877  0.45739750  1
  C  C160  1  0.59196325  0.68750345  0.49865488  1
  H  H161  1  0.54540448  0.85412154  0.62519893  1
  O  O162  1  0.78661990  0.95487658  0.62057063  1
  H  H163  1  0.86010413  0.53795115  0.55103430  1
  C  C164  1  0.53263940  0.74118830  0.56123078  1
  C  C165  1  0.61108538  0.81151821  0.58538283  1
  H  H166  1  0.67550958  0.66821874  0.69637283  1
  C  C167  1  0.95614943  0.55508488  0.50916405  1
  H  H168  1  0.87514434  0.84418864  0.70938662  1
  C  C169  1  0.75684276  0.83128613  0.54395760  1
  C  C170  1  0.84596374  0.90744184  0.56718134  1
  Zn  Zn171  1  0.94395117  0.98411578  0.72654475  1
  H  H172  1  0.69785696  0.52542573  0.70492225  1
  O  O173  1  0.98167969  0.92466771  0.53396011  1
  O  O174  1  0.94939605  0.65544539  0.66024857  1
  C  C175  1  0.58155466  0.63137599  0.73120003  1
  C  C176  1  0.58346398  0.54727017  0.73091082  1
  O  O177  1  0.58099457  0.81448690  0.96358011  1
  Zn  Zn178  1  0.74052676  0.82952872  0.85851042  1
  O  O179  1  0.81510657  0.94558841  0.92351356  1
  O  O180  1  0.90331523  0.86703749  0.75874255  1
  O  O181  1  0.92919377  0.72826302  0.84998195  1
  C  C182  1  0.94483568  0.55921014  0.84262351  1
  H  H183  1  0.92767756  0.96474105  0.91437530  1
  H  H184  1  0.89432565  0.59271376  0.78983750  1
  O  O185  1  0.54637188  0.79918454  0.75726929  1
