# generated using pymatgen
data_Zn5H26(C21O10)2
_symmetry_space_group_name_H-M   'P 1'
_cell_length_a   8.40113826
_cell_length_b   15.01212014
_cell_length_c   16.37093474
_cell_angle_alpha   90.00000000
_cell_angle_beta   90.00000000
_cell_angle_gamma   90.00000000
_symmetry_Int_Tables_number   1
_chemical_formula_structural   Zn5H26(C21O10)2
_chemical_formula_sum   'Zn10 H52 C84 O40'
_cell_volume   2064.68423014
_cell_formula_units_Z   2
loop_
 _symmetry_equiv_pos_site_id
 _symmetry_equiv_pos_as_xyz
  1  'x, y, z'
loop_
 _atom_site_type_symbol
 _atom_site_label
 _atom_site_symmetry_multiplicity
 _atom_site_fract_x
 _atom_site_fract_y
 _atom_site_fract_z
 _atom_site_occupancy
  O  O0  1  0.30515134  0.16301136  0.02975654  1
  C  C1  1  0.11483037  0.40816297  0.11262035  1
  Zn  Zn2  1  0.15610944  0.09664946  0.11763274  1
  C  C3  1  0.20788099  0.38253990  0.18115201  1
  C  C4  1  0.47076547  0.12857080  0.22602974  1
  H  H5  1  0.33182286  0.35579267  0.17421808  1
  C  C6  1  0.16902729  0.40757413  0.02492965  1
  O  O7  1  0.35165347  0.17236773  0.20524792  1
  H  H8  1  0.46283601  0.40144614  0.24560828  1
  H  H9  1  0.33188982  0.21571038  0.06529984  1
  O  O10  1  0.29870918  0.37563754  0.00494167  1
  O  O11  1  0.05731855  0.05170465  0.01107712  1
  C  C12  1  0.43629134  0.17769524  0.37199851  1
  H  H13  1  0.19178020  0.09293209  0.46195622  1
  H  H14  1  0.32591692  0.21074215  0.35295019  1
  C  C15  1  0.01154130  0.46219284  0.27605288  1
  C  C16  1  0.13503697  0.03401874  0.42684139  1
  H  H17  1  0.26455744  0.06438489  0.31151176  1
  C  C18  1  0.18480553  0.02027636  0.34591449  1
  H  H19  1  0.22259775  0.39702738  0.30869046  1
  C  C20  1  0.15055798  0.41184139  0.25665399  1
  C  C21  1  0.48986524  0.17593515  0.45495657  1
  C  C22  1  0.03595211  0.08163170  0.59102258  1
  H  H23  1  0.14145142  0.01898212  0.69424245  1
  C  C24  1  0.03122552  0.24674022  0.59087590  1
  C  C25  1  0.15583595  0.16244688  0.70522948  1
  H  H26  1  0.13648704  0.30815751  0.69591334  1
  C  C27  1  0.10962356  0.08235432  0.66610882  1
  C  C28  1  0.11331046  0.24160264  0.66625509  1
  C  C29  1  0.00914523  0.16174015  0.55508423  1
  C  C30  1  0.43945266  0.47088812  0.69786034  1
  H  H31  1  0.41896560  0.21383675  0.50245216  1
  O  O32  1  0.48974187  0.41469323  0.63319122  1
  C  C33  1  0.04427521  0.48725788  0.60091373  1
  H  H34  1  0.08303869  0.49862003  0.53922165  1
  O  O35  1  0.28418331  0.10145420  0.82086644  1
  O  O36  1  0.24613980  0.24668727  0.82202472  1
  C  C37  1  0.37577710  0.44152226  0.77253784  1
  Zn  Zn38  1  0.33790619  0.25093544  0.93886556  1
  C  C39  1  0.23431244  0.17141816  0.78746977  1
  O  O40  1  0.07795634  0.44579901  0.97292375  1
  H  H41  1  0.35810205  0.37314866  0.77812908  1
  H  H42  1  0.14390098  0.07867143  0.98137590  1
  H  H43  1  0.29236526  0.47271625  0.89655134  1
  C  C44  1  0.33402405  0.49823334  0.83686848  1
  C  C45  1  0.39092072  0.63332927  0.18513569  1
  O  O46  1  0.26281392  0.97819745  0.19061253  1
  O  O47  1  0.09546046  0.86649649  0.18166979  1
  C  C48  1  0.15976573  0.92812504  0.22429453  1
  O  O49  1  0.29100921  0.68895770  0.16477259  1
  O  O50  1  0.45964954  0.87762893  0.07541118  1
  Zn  Zn51  1  0.24735465  0.80818023  0.08280858  1
  H  H52  1  0.42964816  0.94568861  0.07148706  1
  O  O53  1  0.49759514  0.60376788  0.13736849  1
  C  C54  1  0.26036513  0.64727115  0.32413777  1
  C  C55  1  0.36618491  0.60447190  0.27129675  1
  C  C56  1  0.11247094  0.94400845  0.30962118  1
  C  C57  1  0.25347602  0.61590341  0.40538998  1
  H  H58  1  0.18433512  0.70305300  0.30224552  1
  O  O59  1  0.13134246  0.65336811  0.46597637  1
  C  C60  1  0.34964611  0.54471322  0.42938011  1
  C  C61  1  0.03533365  0.97566752  0.47274531  1
  C  C62  1  0.01641649  0.88347511  0.35116356  1
  C  C63  1  0.46280672  0.53469540  0.29673594  1
  H  H64  1  0.32991565  0.51971219  0.49161665  1
  C  C65  1  0.46220412  0.50359785  0.37799156  1
  H  H66  1  0.40973295  0.70432640  0.50390391  1
  C  C67  1  0.17365190  0.70273089  0.52939723  1
  H  H68  1  0.49725131  0.58834585  0.62478928  1
  C  C69  1  0.27156790  0.89169025  0.72627920  1
  C  C70  1  0.45107282  0.56160733  0.68565335  1
  C  C71  1  0.35852629  0.79727846  0.60876720  1
  C  C72  1  0.23831615  0.83012599  0.65836681  1
  C  C73  1  0.07998492  0.80531746  0.64564064  1
  H  H74  1  0.48566436  0.82028677  0.61793757  1
  C  C75  1  0.05240581  0.55827194  0.65631756  1
  H  H76  1  0.10196708  0.62367072  0.63661463  1
  C  C77  1  0.32286275  0.73701172  0.54745402  1
  O  O78  1  0.39506097  0.93317891  0.71820040  1
  C  C79  1  0.06161237  0.74418268  0.58520676  1
  H  H80  1  0.42025942  0.69364912  0.73011991  1
  C  C81  1  0.40237624  0.62294708  0.74526890  1
  O  O82  1  0.32108330  0.73647546  0.86877412  1
  H  H83  1  0.38954575  0.90923380  0.85614964  1
  C  C84  1  0.32150829  0.65475901  0.88724638  1
  C  C85  1  0.34620055  0.59000860  0.81986685  1
  Zn  Zn86  1  0.06379161  0.79927956  0.86670742  1
  O  O87  1  0.27012001  0.62668249  0.95479761  1
  O  O88  1  0.17304174  0.89988917  0.78302531  1
  O  O89  1  0.43187284  0.94381920  0.90087529  1
  O  O90  1  0.08322800  0.81547446  0.99084127  1
  Zn  Zn91  1  0.03165615  0.58747600  0.98403729  1
  O  O92  1  0.02669700  0.69544041  0.78363143  1
  H  H93  1  0.04819405  0.87310587  0.98757836  1
  C  C94  1  0.91738891  0.47391480  0.20562939  1
  H  H95  1  0.59794315  0.30607484  0.14596611  1
  C  C96  1  0.78288497  0.26279872  0.22923476  1
  C  C97  1  0.86806212  0.20612499  0.16783696  1
  O  O98  1  0.83247598  0.20491544  0.09512625  1
  C  C99  1  0.64701373  0.31117778  0.20740511  1
  O  O100  1  0.54499732  0.07759209  0.17807423  1
  H  H101  1  0.88490675  0.47069045  0.07867106  1
  C  C102  1  0.96909241  0.45126809  0.12922994  1
  H  H103  1  0.79189861  0.49751192  0.21629637  1
  O  O104  1  0.99161945  0.16455112  0.19287559  1
  C  C105  1  0.65873764  0.07642383  0.33314072  1
  H  H106  1  0.84074348  0.35029441  0.41840879  1
  C  C107  1  0.85460637  0.27715847  0.30543616  1
  C  C108  1  0.63467781  0.37862083  0.34378854  1
  C  C109  1  0.77810059  0.33464909  0.36133283  1
  C  C110  1  0.69700383  0.07781199  0.41425784  1
  H  H111  1  0.72983774  0.03910414  0.28702587  1
  O  O112  1  0.96364586  0.48786268  0.35355512  1
  H  H113  1  0.96451264  0.24359061  0.31993588  1
  O  O114  1  0.55264959  0.43499393  0.40337463  1
  C  C115  1  0.52069570  0.13034427  0.31387759  1
  H  H116  1  0.79079363  0.02921373  0.43976848  1
  C  C117  1  0.61739920  0.12717021  0.47618421  1
  H  H118  1  0.94831253  0.15591077  0.49693254  1
  C  C119  1  0.57303909  0.36543363  0.26315158  1
  H  H120  1  0.87233141  0.32965881  0.71591062  1
  C  C121  1  0.59353381  0.26551875  0.60163479  1
  C  C122  1  0.67395767  0.15775700  0.69873075  1
  O  O123  1  0.67020441  0.11360566  0.55859806  1
  H  H124  1  0.58164924  0.28357573  0.53794595  1
  C  C125  1  0.55648784  0.33112181  0.65813640  1
  C  C126  1  0.64377485  0.17732479  0.61608183  1
  C  C127  1  0.92814787  0.39350851  0.69477486  1
  H  H128  1  0.72654005  0.09428308  0.72255144  1
  C  C129  1  0.59273833  0.30892661  0.74015906  1
  O  O130  1  0.98674773  0.32558914  0.55892929  1
  C  C131  1  0.98998958  0.40136504  0.61758661  1
  H  H132  1  0.56878418  0.35243729  0.79148286  1
  O  O133  1  0.68707426  0.12830944  0.87955562  1
  C  C134  1  0.66259998  0.20855951  0.85337043  1
  C  C135  1  0.64533860  0.22030409  0.75722623  1
  O  O136  1  0.62623783  0.26707506  0.90079236  1
  H  H137  1  0.87701110  0.44696822  0.81405961  1
  Zn  Zn138  1  0.81297059  0.10106903  0.99553026  1
  Zn  Zn139  1  0.50867909  0.03016660  0.81051346  1
  C  C140  1  0.92735893  0.46076998  0.75330872  1
  Zn  Zn141  1  0.69014139  0.67933717  0.08368466  1
  O  O142  1  0.73604595  0.76745013  0.18166202  1
  O  O143  1  0.91667754  0.63970611  0.07461751  1
  H  H144  1  0.98483608  0.69226096  0.07291952  1
  Zn  Zn145  1  0.53097843  0.93499322  0.18788435  1
  O  O146  1  0.73763741  0.97572009  0.01934673  1
  H  H147  1  0.87853025  0.63535443  0.23948066  1
  H  H148  1  0.83646572  0.96294921  0.04671234  1
  C  C149  1  0.71778438  0.70869037  0.31848936  1
  C  C150  1  0.82107575  0.63484574  0.30029697  1
  H  H151  1  0.91950385  0.85168502  0.47096132  1
  C  C152  1  0.70933587  0.65155754  0.45480741  1
  C  C153  1  0.80546301  0.58449156  0.43029741  1
  H  H154  1  0.58868456  0.76907001  0.41848544  1
  C  C155  1  0.66628884  0.71639772  0.39943121  1
  C  C156  1  0.86180094  0.56738247  0.35135597  1
  H  H157  1  0.84028004  0.53075267  0.47248768  1
  O  O158  1  0.62176227  0.84791852  0.27073638  1
  C  C159  1  0.68987139  0.77714338  0.25444382  1
  H  H160  1  0.97885579  0.82023191  0.32287541  1
  C  C161  1  0.98787359  0.89717262  0.43258914  1
  H  H162  1  0.55736222  0.51378175  0.25255235  1
  H  H163  1  0.72467602  0.81306229  0.51517823  1
  C  C164  1  0.69004493  0.70505314  0.59691713  1
  H  H165  1  0.75436590  0.93173644  0.61758313  1
  H  H166  1  0.94110254  0.71953561  0.57413872  1
  C  C167  1  0.73828558  0.86174092  0.63850696  1
  O  O168  1  0.66952362  0.63893594  0.54291017  1
  C  C169  1  0.71959975  0.79520711  0.58084058  1
  C  C170  1  0.70127213  0.68502016  0.68211216  1
  H  H171  1  0.70558199  0.61785723  0.70531370  1
  C  C172  1  0.74002703  0.84093471  0.72081618  1
  H  H173  1  0.98329188  0.83022677  0.68961903  1
  C  C174  1  0.97769811  0.54848166  0.73131706  1
  C  C175  1  0.72381962  0.74975247  0.74097632  1
  O  O176  1  0.99484210  0.98961829  0.55045500  1
  O  O177  1  0.90903938  0.60558425  0.86622219  1
  O  O178  1  0.81188424  0.86048786  0.86143010  1
  H  H179  1  0.72978361  0.72954232  0.80622216  1
  Zn  Zn180  1  0.60165345  0.87406511  0.96054227  1
  C  C181  1  0.77397474  0.89704060  0.79319593  1
  C  C182  1  0.97151510  0.61793723  0.79736355  1
  O  O183  1  0.75161255  0.97553303  0.77835716  1
  O  O184  1  0.62394847  0.73650641  0.97486080  1
  H  H185  1  0.52978987  0.70172363  0.96884722  1
