# generated using pymatgen
data_ZnH8C19(NO3)2
_symmetry_space_group_name_H-M   'P 1'
_cell_length_a   11.80612477
_cell_length_b   11.00511401
_cell_length_c   39.31539153
_cell_angle_alpha   90.00000000
_cell_angle_beta   90.00000000
_cell_angle_gamma   90.00000000
_symmetry_Int_Tables_number   1
_chemical_formula_structural   ZnH8C19(NO3)2
_chemical_formula_sum   'Zn12 H96 C228 N24 O72'
_cell_volume   5108.16032906
_cell_formula_units_Z   12
loop_
 _symmetry_equiv_pos_site_id
 _symmetry_equiv_pos_as_xyz
  1  'x, y, z'
loop_
 _atom_site_type_symbol
 _atom_site_label
 _atom_site_symmetry_multiplicity
 _atom_site_fract_x
 _atom_site_fract_y
 _atom_site_fract_z
 _atom_site_occupancy
  C  C0  1  0.07537942  0.32945664  0.18938129  1
  C  C1  1  0.03983984  0.20902610  0.20812713  1
  H  H2  1  0.34756125  0.41680959  0.15332082  1
  O  O3  1  0.37769558  0.20741835  0.16878506  1
  C  C4  1  0.25749561  0.40734068  0.22210695  1
  C  C5  1  0.16672873  0.40356279  0.19548981  1
  N  N6  1  0.48932367  0.08083694  0.13518187  1
  C  C7  1  0.44137813  0.29055698  0.11799446  1
  N  N8  1  0.17090738  0.06649546  0.07912670  1
  C  C9  1  0.30851043  0.24048479  0.01920082  1
  H  H10  1  0.23669285  0.41564620  0.02962615  1
  H  H11  1  0.32861079  0.11583051  0.09839894  1
  H  H12  1  0.39242687  0.06185716  0.19818792  1
  C  C13  1  0.01845474  0.44217396  0.13819837  1
  C  C14  1  0.26712740  0.03563910  0.09553201  1
  C  C15  1  0.00438546  0.34401081  0.16165546  1
  O  O16  1  0.10114801  0.16689087  0.22937814  1
  C  C17  1  0.42958664  0.18735266  0.14355771  1
  H  H18  1  0.29677392  0.19712518  0.04439705  1
  C  C19  1  0.40230938  0.49925156  0.10736333  1
  C  C20  1  0.39714575  0.40239950  0.12965883  1
  C  C21  1  0.27930687  0.35922830  0.01097663  1
  C  C22  1  0.35254205  0.48844787  0.22228099  1
  C  C23  1  0.46796068  0.49039378  0.07772295  1
  H  H24  1  0.41724852  0.48776102  0.24230624  1
  O  O25  1  0.37847360  0.00006521  0.03250085  1
  C  C26  1  0.38572573  0.03903916  0.00310148  1
  O  O27  1  0.34560987  0.07052525  0.37105237  1
  C  C28  1  0.03005939  0.11440515  0.38534093  1
  H  H29  1  0.33025812  0.28371974  0.37769963  1
  O  O30  1  0.28003430  0.27252776  0.27652385  1
  C  C31  1  0.10140239  0.07309202  0.41103714  1
  C  C32  1  0.38793830  0.43956818  0.41036631  1
  O  O33  1  0.36876426  0.25660463  0.43955238  1
  C  C34  1  0.39127176  0.43531769  0.34800323  1
  C  C35  1  0.36274405  0.38304073  0.38007038  1
  C  C36  1  0.35387406  0.36450643  0.44260963  1
  C  C37  1  0.06378619  0.22522783  0.36500531  1
  C  C38  1  0.30364591  0.00820089  0.49323601  1
  O  O39  1  0.14136698  0.28423170  0.37610188  1
  C  C40  1  0.01928185  0.49301499  0.26515216  1
  H  H41  1  0.09286069  0.06847918  0.32612881  1
  H  H42  1  0.18434911  0.12031713  0.41357004  1
  O  O43  1  0.30204694  0.40794627  0.46656551  1
  H  H44  1  0.37548816  0.38904533  0.32392926  1
  H  H45  1  0.24593075  0.10103355  0.27377990  1
  H  H46  1  0.14105926  0.44020311  0.35479124  1
  O  O47  1  0.08481105  0.36624043  0.48724437  1
  H  H48  1  0.07381525  0.45635643  0.48388967  1
  C  C49  1  0.10533181  0.45098192  0.32848318  1
  N  N50  1  0.00360431  0.25589066  0.33626561  1
  O  O51  1  0.47734917  0.18305939  0.34013750  1
  C  C52  1  0.03384515  0.36251998  0.31556244  1
  C  C53  1  0.41016302  0.12737671  0.35497436  1
  C  C54  1  0.00548421  0.33071617  0.45886217  1
  C  C55  1  0.27252630  0.33427106  0.25252482  1
  H  H56  1  0.13572263  0.48694894  0.43864709  1
  C  C57  1  0.27085839  0.00271247  0.27176049  1
  C  C58  1  0.14249015  0.22654063  0.63990231  1
  C  C59  1  0.28362249  0.14922163  0.59890764  1
  C  C60  1  0.33384897  0.44043333  0.67519587  1
  C  C61  1  0.17895931  0.12535519  0.66298803  1
  C  C62  1  0.12170529  0.11429121  0.69578646  1
  C  C63  1  0.03660671  0.19229214  0.70693633  1
  H  H64  1  0.48728181  0.30441565  0.66810385  1
  H  H65  1  0.34946858  0.42637376  0.72532275  1
  O  O66  1  0.24966831  0.33357161  0.55866752  1
  C  C67  1  0.25956337  0.04068911  0.65317462  1
  O  O68  1  0.13027409  0.42986455  0.59341463  1
  C  C69  1  0.30428096  0.05110645  0.62063238  1
  C  C70  1  0.05659579  0.30216755  0.65286375  1
  H  H71  1  0.26362708  0.36653228  0.67439539  1
  C  C72  1  0.16095141  0.01937497  0.71923748  1
  C  C73  1  0.20674364  0.23632828  0.60849008  1
  C  C74  1  0.19151108  0.34034188  0.58536597  1
  H  H75  1  0.00306365  0.01638679  0.60739980  1
  O  O76  1  0.43665579  0.19289684  0.50877806  1
  N  N77  1  0.37575612  0.46799107  0.70506750  1
  H  H78  1  0.33474156  0.15503331  0.57493602  1
  H  H79  1  0.31132552  0.49951881  0.62188996  1
  C  C80  1  0.00355311  0.29160874  0.68514569  1
  Zn  Zn81  1  0.24983641  0.28301485  0.50755646  1
  C  C82  1  0.49338570  0.06053181  0.55566859  1
  O  O83  1  0.10748972  0.01916913  0.74975349  1
  O  O84  1  0.22716036  0.08143257  0.50018246  1
  C  C85  1  0.49694545  0.17419440  0.53618804  1
  Zn  Zn86  1  0.06749663  0.40927467  0.89705992  1
  C  C87  1  0.14312663  0.45649026  0.76702376  1
  C  C88  1  0.24768378  0.27836650  0.79951115  1
  N  N89  1  0.07774133  0.25915811  0.92476114  1
  C  C90  1  0.10363780  0.12503025  0.81937480  1
  C  C91  1  0.43827397  0.30036104  0.89581000  1
  H  H92  1  0.20800077  0.48950158  0.83902221  1
  H  H93  1  0.49698737  0.11715046  0.88518177  1
  C  C94  1  0.02449995  0.22339249  0.82149480  1
  C  C95  1  0.35543216  0.16401427  0.99459532  1
  C  C96  1  0.29101235  0.04882398  0.81001423  1
  C  C97  1  0.21868381  0.15362943  0.80842314  1
  C  C98  1  0.45254549  0.17735960  0.90287516  1
  C  C99  1  0.34477394  0.33318317  0.95167332  1
  C  C100  1  0.38356581  0.37755548  0.91887552  1
  C  C101  1  0.15194195  0.35851175  0.79124477  1
  C  C102  1  0.43966274  0.19732659  0.80244242  1
  C  C103  1  0.37060065  0.30048720  0.79891928  1
  C  C104  1  0.40575199  0.07507278  0.80811328  1
  H  H105  1  0.18194620  0.00636908  0.76475821  1
  C  C106  1  0.42667167  0.42180774  0.79359192  1
  C  C107  1  0.37108287  0.20784987  0.96037980  1
  C  C108  1  0.29601709  0.40855801  0.97832194  1
  C  C109  1  0.41584220  0.12672198  0.93454290  1
  H  H110  1  0.46650715  0.33731851  0.87089003  1
  C  C111  1  0.04141830  0.32797419  0.80270661  1
  C  C112  1  0.04506177  0.24572521  0.95511711  1
  O  O113  1  0.03906725  0.49999041  0.93923426  1
  Zn  Zn114  1  0.13252833  0.10523892  0.90620160  1
  C  C115  1  0.03082521  0.12975135  0.97150596  1
  C  C116  1  0.45106099  0.00424970  0.94220455  1
  H  H117  1  0.03776793  0.04527542  0.95596486  1
  H  H118  1  0.47260953  0.00282816  0.80993841  1
  C  C119  1  0.06793068  0.00561322  0.83368147  1
  C  C120  1  0.35847392  0.57287819  0.19662766  1
  C  C121  1  0.11576395  0.63192236  0.11867851  1
  O  O122  1  0.06273748  0.63350082  0.09313875  1
  C  C123  1  0.28863221  0.91931172  0.10698950  1
  O  O124  1  0.36742676  0.76263329  0.15549405  1
  C  C125  1  0.28381460  0.70326572  0.15074501  1
  C  C126  1  0.47800280  0.60133412  0.05649547  1
  C  C127  1  0.10039630  0.86527809  0.08866644  1
  C  C128  1  0.18186309  0.50287663  0.17134751  1
  N  N129  1  0.22822724  0.95406111  0.24534128  1
  H  H130  1  0.36942724  0.90386127  0.12037997  1
  N  N131  1  0.19437535  0.72236880  0.12735288  1
  C  C132  1  0.20130735  0.82970049  0.10790849  1
  H  H133  1  0.19287176  0.80657462  0.21829407  1
  C  C134  1  0.24251041  0.83479607  0.24006030  1
  H  H135  1  0.44691586  0.89447604  0.24305212  1
  C  C136  1  0.27186378  0.59225672  0.17191168  1
  H  H137  1  0.36792455  0.58990470  0.11330476  1
  H  H138  1  0.02633969  0.80044593  0.08389580  1
  C  C139  1  0.10645839  0.52748059  0.14302366  1
  O  O140  1  0.43782740  0.69746918  0.06700350  1
  Zn  Zn141  1  0.49718140  0.85902810  0.04716035  1
  H  H142  1  0.42934853  0.63721294  0.19712509  1
  C  C143  1  0.48909519  0.91009121  0.21776354  1
  C  C144  1  0.45924619  0.99619232  0.19292493  1
  C  C145  1  0.09278688  0.98217877  0.07582990  1
  C  C146  1  0.41634798  0.55849105  0.34748132  1
  C  C147  1  0.44865194  0.55322069  0.41150871  1
  C  C148  1  0.42963365  0.62484528  0.31346850  1
  H  H149  1  0.13332282  0.64969784  0.39645468  1
  C  C150  1  0.05781868  0.59275073  0.39960825  1
  C  C151  1  0.48568368  0.80765941  0.34318670  1
  H  H152  1  0.13714428  0.94910797  0.45208644  1
  O  O153  1  0.05059457  0.76435915  0.46997629  1
  N  N154  1  0.09730845  0.56704209  0.27629682  1
  C  C155  1  0.13340312  0.55024402  0.30717488  1
  C  C156  1  0.48209218  0.74178574  0.37651395  1
  C  C157  1  0.33142552  0.93881041  0.29622530  1
  H  H158  1  0.06653901  0.80160442  0.29332754  1
  H  H159  1  0.25139336  0.78112989  0.49653646  1
  N  N160  1  0.41554330  0.75050855  0.31901208  1
  C  C161  1  0.49891883  0.61098552  0.43995823  1
  C  C162  1  0.43996168  0.61880863  0.37916610  1
  H  H163  1  0.19921500  0.61676303  0.31396649  1
  C  C164  1  0.35947209  0.81499195  0.29216572  1
  O  O165  1  0.04978151  0.77438877  0.35154615  1
  C  C166  1  0.30389597  0.76375369  0.26343763  1
  O  O167  1  0.42304006  0.56819119  0.28743346  1
  H  H168  1  0.36620650  0.98694430  0.31911105  1
  C  C169  1  0.07205453  0.97640952  0.43304896  1
  H  H170  1  0.32187849  0.66745140  0.25663165  1
  H  H171  1  0.01091424  0.70920052  0.48449110  1
  O  O172  1  0.34119975  0.99647732  0.46383853  1
  O  O173  1  0.13196950  0.99440003  0.32914934  1
  C  C174  1  0.05678646  0.50143913  0.42357321  1
  H  H175  1  0.08715799  0.94327413  0.34430717  1
  H  H176  1  0.04923674  0.99950851  0.25320630  1
  C  C177  1  0.45195700  0.85397322  0.57287300  1
  N  N178  1  0.24959114  0.95112093  0.70868032  1
  C  C179  1  0.45267585  0.62567503  0.58954475  1
  C  C180  1  0.48920025  0.62453809  0.68237579  1
  C  C181  1  0.35431052  0.91758715  0.52176658  1
  C  C182  1  0.31510724  0.80218336  0.51605609  1
  H  H183  1  0.41677437  0.99127888  0.72328390  1
  O  O184  1  0.46019101  0.52080641  0.58143543  1
  N  N185  1  0.47643501  0.67577335  0.62103700  1
  C  C186  1  0.41755958  0.72990007  0.56649925  1
  C  C187  1  0.45664864  0.55277384  0.70933795  1
  H  H188  1  0.36507611  0.98126152  0.61127000  1
  H  H189  1  0.31964397  0.61398228  0.53395821  1
  C  C190  1  0.43098873  0.94939808  0.54794877  1
  C  C191  1  0.44459284  0.60122385  0.64911947  1
  C  C192  1  0.34875234  0.70788011  0.53853945  1
  O  O193  1  0.35669180  0.85990426  0.66835988  1
  H  H194  1  0.04744315  0.84641255  0.72251415  1
  C  C195  1  0.29319013  0.94018951  0.67752540  1
  H  H196  1  0.49378645  0.54606224  0.73505033  1
  C  C197  1  0.47516803  0.91954887  0.73338595  1
  C  C198  1  0.35825419  0.51105790  0.64604961  1
  O  O199  1  0.12987028  0.53768936  0.74828243  1
  N  N200  1  0.14037849  0.90689946  0.82626890  1
  C  C201  1  0.10457331  0.78821006  0.83686475  1
  N  N202  1  0.48000881  0.72602068  0.76319405  1
  O  O203  1  0.43004081  0.96659340  0.97914375  1
  H  H204  1  0.22432155  0.69029595  0.80418370  1
  C  C205  1  0.27710378  0.69729619  0.93124848  1
  C  C206  1  0.26615353  0.87878922  0.89367208  1
  N  N207  1  0.18562670  0.94908905  0.91018133  1
  C  C208  1  0.16712231  0.68461401  0.82707165  1
  C  C209  1  0.30738785  0.76229711  0.90151264  1
  O  O210  1  0.32398804  0.84345968  0.81374808  1
  H  H211  1  0.37482356  0.72600739  0.88519718  1
  O  O212  1  0.38624111  0.54950425  0.88671288  1
  C  C213  1  0.15354319  0.57267667  0.84359617  1
  O  O214  1  0.35468493  0.52439980  0.80098598  1
  C  C215  1  0.19525422  0.77503932  0.95001931  1
  C  C216  1  0.25344432  0.91916482  0.81771274  1
  C  C217  1  0.01739604  0.76161486  0.86103753  1
  C  C218  1  0.16658895  0.88475894  0.93663877  1
  H  H219  1  0.30268825  0.93622352  0.87178950  1
  C  C220  1  0.36166133  0.50904201  0.91357621  1
  H  H221  1  0.40006124  0.59054048  0.79248807  1
  H  H222  1  0.15839820  0.74606208  0.97509452  1
  N  N223  1  0.07798627  0.55927655  0.86946681  1
  N  N224  1  0.30209364  0.57655749  0.93871250  1
  C  C225  1  0.26513357  0.53721896  0.97090048  1
  C  C226  1  0.00716102  0.65281131  0.87794838  1
  H  H227  1  0.11139304  0.53707270  0.94006368  1
  H  H228  1  0.33445850  0.82115836  0.75836724  1
  O  O229  1  0.21270260  0.59627320  0.99127132  1
  C  C230  1  0.42585844  0.82488687  0.75284772  1
  O  O231  1  0.94422680  0.16582087  0.20470478  1
  H  H232  1  0.88655429  0.05243421  0.23092776  1
  C  C233  1  0.94038859  0.32564545  0.03597105  1
  O  O234  1  0.75072813  0.35135862  0.18920378  1
  H  H235  1  0.96321099  0.45129955  0.11598572  1
  C  C236  1  0.51855597  0.38280241  0.06415408  1
  C  C237  1  0.52021207  0.00442571  0.16213226  1
  C  C238  1  0.72138637  0.34606873  0.15589034  1
  C  C239  1  0.54003770  0.15618151  0.07879015  1
  C  C240  1  0.97836605  0.11777587  0.00454198  1
  C  C241  1  0.61146873  0.23977989  0.02400355  1
  O  O242  1  0.69476002  0.25620599  0.14168244  1
  C  C243  1  0.52885916  0.05036458  0.10281346  1
  C  C244  1  0.57792654  0.47078449  0.01262362  1
  C  C245  1  0.59359202  0.14253166  0.04823195  1
  C  C246  1  0.57193602  0.36104343  0.03121381  1
  C  C247  1  0.74396427  0.45986066  0.13407625  1
  C  C248  1  0.70941331  0.45581208  0.10017476  1
  H  H249  1  0.67868145  0.36519816  0.09099827  1
  C  C250  1  0.50328532  0.27960056  0.08726908  1
  H  H251  1  0.62535133  0.05168499  0.04031478  1
  C  C252  1  0.93839923  0.18852288  0.03086823  1
  H  H253  1  0.93298652  0.27789120  0.16023332  1
  Zn  Zn254  1  0.92945804  0.01021432  0.05090116  1
  O  O255  1  0.92296460  0.39423206  0.05906367  1
  C  C256  1  0.78919664  0.46412225  0.20812266  1
  O  O257  1  0.79156153  0.45794141  0.23806017  1
  O  O258  1  0.76860972  0.30724238  0.47362405  1
  O  O259  1  0.62858342  0.25523024  0.44114195  1
  C  C260  1  0.92446975  0.05123394  0.37524997  1
  C  C261  1  0.72509194  0.31235538  0.44518324  1
  C  C262  1  0.72978097  0.11253639  0.35708061  1
  C  C263  1  0.96862444  0.42113447  0.43179839  1
  C  C264  1  0.67679623  0.39923670  0.39065553  1
  H  H265  1  0.59527161  0.08019555  0.40051121  1
  C  C266  1  0.86701501  0.44324562  0.41321692  1
  H  H267  1  0.68473724  0.19925613  0.34793601  1
  C  C268  1  0.76154898  0.38204006  0.41477955  1
  H  H269  1  0.92934729  0.32327178  0.26885990  1
  O  O270  1  0.98135641  0.22484948  0.45953128  1
  H  H271  1  0.59102250  0.34863490  0.39442738  1
  O  O272  1  0.52649480  0.46183877  0.48497926  1
  C  C273  1  0.90311628  0.20247915  0.32665489  1
  C  C274  1  0.68221018  0.05008555  0.39056173  1
  Zn  Zn275  1  0.50598856  0.13480464  0.46237604  1
  C  C276  1  0.98904383  0.38500853  0.28258498  1
  O  O277  1  0.84228349  0.22160198  0.30276902  1
  C  C278  1  0.85160645  0.10304900  0.34883944  1
  Zn  Zn279  1  0.86571412  0.15297890  0.49614726  1
  C  C280  1  0.69181614  0.47197273  0.36142692  1
  H  H281  1  0.62634548  0.47958613  0.34050406  1
  H  H282  1  0.61797819  0.14439115  0.59098197  1
  H  H283  1  0.92824787  0.34744558  0.69595634  1
  O  O284  1  0.70343175  0.48762029  0.57765471  1
  Zn  Zn285  1  0.58477940  0.46816957  0.53794842  1
  O  O286  1  0.50082347  0.14652514  0.71083518  1
  C  C287  1  0.77147137  0.41366315  0.59009870  1
  C  C288  1  0.87247969  0.14417629  0.60526244  1
  O  O289  1  0.55314643  0.26084421  0.54811782  1
  C  C290  1  0.63710322  0.18323420  0.66960425  1
  C  C291  1  0.56634040  0.06711595  0.58458021  1
  C  C292  1  0.93085908  0.05357760  0.62081381  1
  C  C293  1  0.90063223  0.14748264  0.56689429  1
  C  C294  1  0.58780190  0.11174524  0.69750106  1
  O  O295  1  0.87278243  0.42664178  0.58239750  1
  C  C296  1  0.80602245  0.05357409  0.66945316  1
  H  H297  1  0.60180188  0.44092729  0.62654264  1
  O  O298  1  0.83133317  0.18934866  0.54565018  1
  C  C299  1  0.77771479  0.20712310  0.62134612  1
  C  C300  1  0.74178426  0.14450878  0.65332178  1
  O  O301  1  0.78853168  0.38799573  0.72117456  1
  C  C302  1  0.72840776  0.31947926  0.61540301  1
  C  C303  1  0.63106873  0.35125263  0.63340056  1
  H  H304  1  0.73411745  0.18225946  0.73893111  1
  C  C305  1  0.90415599  0.00968528  0.65362903  1
  C  C306  1  0.57530755  0.28377110  0.65867759  1
  N  N307  1  0.64852852  0.00754721  0.70699920  1
  O  O308  1  0.98927313  0.10960953  0.55488367  1
  Zn  Zn309  1  0.99178822  0.45315720  0.62763292  1
  H  H310  1  0.99479567  0.18421066  0.73175939  1
  C  C311  1  0.71849546  0.10103847  0.78901197  1
  C  C312  1  0.71998667  0.12928543  0.82437877  1
  C  C313  1  0.74045170  0.28391770  0.87175313  1
  H  H314  1  0.94100648  0.19698506  0.83124085  1
  C  C315  1  0.75673907  0.40798538  0.88322877  1
  C  C316  1  0.76940574  0.31586381  0.77704044  1
  C  C317  1  0.77867125  0.49477873  0.85652501  1
  O  O318  1  0.72689589  0.21156382  0.92600975  1
  O  O319  1  0.75283771  0.44137896  0.91419400  1
  O  O320  1  0.70671325  0.07097802  0.88557872  1
  Zn  Zn321  1  0.64035104  0.35376280  0.95241536  1
  C  C322  1  0.72518005  0.18299810  0.89601736  1
  C  C323  1  0.76670787  0.34851503  0.81225302  1
  H  H324  1  0.53171101  0.21283276  0.79641982  1
  H  H325  1  0.96941718  0.39173766  0.80006029  1
  C  C326  1  0.73841958  0.25270700  0.83747187  1
  C  C327  1  0.73794650  0.19677586  0.76680112  1
  O  O328  1  0.66096158  0.21864908  0.99613602  1
  O  O329  1  0.61602757  0.48557049  0.98453667  1
  C  C330  1  0.78561392  0.47159975  0.82303815  1
  C  C331  1  0.69722826  0.03246988  0.84810120  1
  O  O332  1  0.52012489  0.43792840  0.78429390  1
  Zn  Zn333  1  0.98654808  0.38117240  0.98816876  1
  H  H334  1  0.69400800  0.00982400  0.78259242  1
  C  C335  1  0.79820221  0.41234936  0.75097776  1
  H  H336  1  0.95847899  0.62135562  0.03255834  1
  C  C337  1  0.82178491  0.76171035  0.03440529  1
  C  C338  1  0.87469774  0.88114287  0.12042786  1
  C  C339  1  0.81765610  0.56898481  0.18781178  1
  C  C340  1  0.81128826  0.66484642  0.12910797  1
  O  O341  1  0.53405726  0.59822915  0.02729234  1
  C  C342  1  0.90552515  0.69048296  0.01848803  1
  C  C343  1  0.73850231  0.82595387  0.01283584  1
  H  H344  1  0.89363693  0.87100725  0.18906098  1
  C  C345  1  0.79181910  0.55919990  0.15165827  1
  C  C346  1  0.61172425  0.91810170  0.15993545  1
  H  H347  1  0.98604469  0.52461487  0.24045864  1
  O  O348  1  0.92067836  0.97006122  0.13178888  1
  C  C349  1  0.87364547  0.78014018  0.17913181  1
  H  H350  1  0.69513814  0.75942437  0.18477194  1
  N  N351  1  0.57450393  0.83173089  0.21483150  1
  H  H352  1  0.66978093  0.93067429  0.13846483  1
  H  H353  1  0.71908440  0.54789711  0.05130338  1
  H  H354  1  0.88580789  0.69450709  0.22723003  1
  C  C355  1  0.82336232  0.76294110  0.07202385  1
  C  C356  1  0.77766383  0.66406376  0.09327024  1
  C  C357  1  0.85851449  0.68045563  0.20016376  1
  C  C358  1  0.85120839  0.77446032  0.14361121  1
  O  O359  1  0.56252676  0.95240161  0.09376413  1
  N  N360  1  0.86247782  0.86305711  0.08615421  1
  C  C361  1  0.63376397  0.83546636  0.18589845  1
  C  C362  1  0.73378987  0.55373234  0.07929824  1
  O  O363  1  0.65581307  0.89524027  0.02020897  1
  H  H364  1  0.71374643  0.96464392  0.24396287  1
  H  H365  1  0.56927634  0.89473365  0.40251755  1
  C  C366  1  0.53043655  0.73522097  0.43543074  1
  C  C367  1  0.78998089  0.62510583  0.32657054  1
  N  N368  1  0.88223953  0.70569209  0.32660362  1
  C  C369  1  0.87889023  0.96232973  0.40577542  1
  C  C370  1  0.53995026  0.56737248  0.47430482  1
  C  C371  1  0.88264642  0.78803153  0.29914355  1
  C  C372  1  0.87409557  0.52519898  0.38309601  1
  C  C373  1  0.96634924  0.71011624  0.35178010  1
  C  C374  1  0.78507274  0.92641144  0.25827005  1
  H  H375  1  0.70624311  0.78314277  0.28701257  1
  C  C376  1  0.78415748  0.82707358  0.28018574  1
  O  O377  1  0.71203944  0.61089665  0.30712842  1
  C  C378  1  0.79016678  0.54366064  0.35690535  1
  C  C379  1  0.95470227  0.79937199  0.44775536  1
  C  C380  1  0.97097894  0.91361584  0.42874815  1
  O  O381  1  0.86941964  0.73823178  0.45125728  1
  O  O382  1  0.55000381  0.89199459  0.33733548  1
  Zn  Zn383  1  0.76936803  0.93723310  0.35879228  1
  H  H384  1  0.56328196  0.78307800  0.45778682  1
  O  O385  1  0.58333121  0.63245245  0.49675934  1
  C  C386  1  0.96532976  0.61258493  0.37837156  1
  C  C387  1  0.53309948  0.80040182  0.40425743  1
  C  C388  1  0.97961718  0.93907639  0.26414978  1
  C  C389  1  0.98404446  0.83943412  0.28675626  1
  C  C390  1  0.76329128  0.99111089  0.41358825  1
  O  O391  1  0.60909218  0.99833140  0.45012899  1
  O  O392  1  0.78191215  0.99530468  0.47248091  1
  C  C393  1  0.71536689  0.99467779  0.44795045  1
  N  N394  1  0.88398053  0.97796092  0.25002788  1
  O  O395  1  0.63199472  0.78406311  0.64624656  1
  O  O396  1  0.82963680  0.94828421  0.72177484  1
  C  C397  1  0.99630331  0.76726496  0.71982067  1
  H  H398  1  0.82575025  0.50801312  0.69154527  1
  C  C399  1  0.87478106  0.58532916  0.70294212  1
  C  C400  1  0.59063148  0.91362220  0.72491401  1
  C  C401  1  0.56090601  0.76489361  0.62589396  1
  C  C402  1  0.87164538  0.60822686  0.73795304  1
  O  O403  1  0.92631806  0.62233404  0.64421487  1
  C  C404  1  0.93156536  0.65216465  0.67597120  1
  H  H405  1  0.95588385  0.93479732  0.66713026  1
  C  C406  1  0.64822093  0.80699160  0.73707293  1
  H  H407  1  0.74052283  0.80371763  0.73637664  1
  C  C408  1  0.59026124  0.97176145  0.60695673  1
  C  C409  1  0.53239474  0.86690125  0.60086467  1
  C  C410  1  0.93909676  0.70977668  0.74786690  1
  H  H411  1  0.65438380  0.98396202  0.62804036  1
  H  H412  1  0.54623340  0.71118953  0.68511390  1
  N  N413  1  0.99965209  0.74205644  0.68697925  1
  C  C414  1  0.76594481  0.99379491  0.70234837  1
  O  O415  1  0.68018442  0.93002420  0.84201134  1
  H  H416  1  0.79176085  0.59131206  0.86377587  1
  C  C417  1  0.58788027  0.71641263  0.75441344  1
  H  H418  1  0.63170342  0.63557677  0.76512355  1
  C  C419  1  0.81051299  0.56818686  0.79631806  1
  H  H420  1  0.96312028  0.62260867  0.96608053  1
  N  N421  1  0.84280467  0.75371285  0.96292573  1
  H  H422  1  0.70868173  0.86587391  0.96009355  1
  C  C423  1  0.76786177  0.81584715  0.97797483  1
  O  O424  1  0.81380103  0.67166804  0.80522393  1
  H  H425  1  0.95988171  0.63895764  0.90108438  1
  H  H426  1  0.96322485  0.83752755  0.87059056  1
  O  O427  1  0.97653795  0.98932762  0.84594911  1
  N  N428  1  0.83007525  0.52513797  0.76370345  1
  H  H429  1  0.94237725  0.74503718  0.77445464  1
  C  C430  1  0.90839985  0.68474800  0.98346027  1
  O  O431  1  0.50019236  0.93357187  0.92538880  1
