# generated using pymatgen
data_ZnH8C19(NO3)2
_symmetry_space_group_name_H-M   'P 1'
_cell_length_a   16.52656573
_cell_length_b   11.31392364
_cell_length_c   28.61037207
_cell_angle_alpha   90.00000000
_cell_angle_beta   90.00000000
_cell_angle_gamma   90.00000000
_symmetry_Int_Tables_number   1
_chemical_formula_structural   ZnH8C19(NO3)2
_chemical_formula_sum   'Zn12 H96 C228 N24 O72'
_cell_volume   5349.57602934
_cell_formula_units_Z   12
loop_
 _symmetry_equiv_pos_site_id
 _symmetry_equiv_pos_as_xyz
  1  'x, y, z'
loop_
 _atom_site_type_symbol
 _atom_site_label
 _atom_site_symmetry_multiplicity
 _atom_site_fract_x
 _atom_site_fract_y
 _atom_site_fract_z
 _atom_site_occupancy
  H  H0  1  0.20554552  0.17259196  0.10009495  1
  C  C1  1  0.04707178  0.31104591  0.22034578  1
  N  N2  1  0.17334117  0.38072377  0.18870522  1
  H  H3  1  0.42372805  0.23448786  0.17376231  1
  C  C4  1  0.30984628  0.43325490  0.15290296  1
  C  C5  1  0.22881222  0.10755106  0.12567575  1
  C  C6  1  0.48172560  0.40175109  0.19293310  1
  C  C7  1  0.35184213  0.47943904  0.11496163  1
  C  C8  1  0.46313877  0.30608569  0.16102343  1
  O  O9  1  0.24203702  0.06926431  0.02634936  1
  C  C10  1  0.28314830  0.02603171  0.10744056  1
  H  H11  1  0.16121400  0.17314422  0.18193782  1
  C  C12  1  0.20762353  0.10717185  0.17334132  1
  N  N13  1  0.45099450  0.42263888  0.23866853  1
  C  C14  1  0.22659076  0.39766600  0.14964658  1
  H  H15  1  0.33776637  0.42134446  0.18716306  1
  H  H16  1  0.13631353  0.37752630  0.09001353  1
  C  C17  1  0.19932653  0.40502374  0.10233961  1
  C  C18  1  0.09607371  0.33984019  0.17723188  1
  O  O19  1  0.06970926  0.32218013  0.13849201  1
  C  C20  1  0.19836292  0.42604900  0.23172602  1
  O  O21  1  0.38821168  0.23872286  0.23602543  1
  H  H22  1  0.23153628  0.45227250  0.02795919  1
  C  C23  1  0.29539940  0.05217256  0.05261641  1
  Zn  Zn24  1  0.45451369  0.15868083  0.08468671  1
  C  C25  1  0.24984923  0.04233768  0.20613126  1
  C  C26  1  0.48885141  0.30149672  0.11437034  1
  O  O27  1  0.37430553  0.06398472  0.03980972  1
  C  C28  1  0.24773339  0.44769896  0.06554531  1
  N  N29  1  0.32376308  0.48363119  0.07149281  1
  O  O30  1  0.25633866  0.48759159  0.23616351  1
  O  O31  1  0.36353185  0.37072721  0.48352802  1
  C  C32  1  0.32344271  0.25181810  0.32529700  1
  C  C33  1  0.36739325  0.45574793  0.38242846  1
  H  H34  1  0.26867412  0.18538447  0.38786918  1
  C  C35  1  0.23364130  0.04801162  0.25688818  1
  C  C36  1  0.07011383  0.33202237  0.26853709  1
  C  C37  1  0.30904364  0.35482467  0.45579930  1
  H  H38  1  0.15560445  0.42093469  0.39266652  1
  C  C39  1  0.16672605  0.43040930  0.31805309  1
  C  C40  1  0.01971769  0.29921484  0.30953175  1
  C  C41  1  0.17539481  0.04754050  0.40029659  1
  C  C42  1  0.30283926  0.25780833  0.37393632  1
  C  C43  1  0.48447583  0.21781927  0.43573488  1
  C  C44  1  0.37302635  0.34098423  0.30650271  1
  C  C45  1  0.02849983  0.27968742  0.39981712  1
  C  C46  1  0.32452956  0.35683580  0.40029859  1
  H  H47  1  0.12581849  0.09664870  0.41566808  1
  C  C48  1  0.05677742  0.32927954  0.35341890  1
  H  H49  1  0.30292865  0.17877182  0.30373450  1
  O  O50  1  0.23404748  0.36131889  0.46905003  1
  O  O51  1  0.04805081  0.33078463  0.43612375  1
  C  C52  1  0.12903550  0.39171715  0.35859445  1
  C  C53  1  0.14356612  0.39547301  0.27225732  1
  H  H54  1  0.46483512  0.30980172  0.44968712  1
  C  C55  1  0.39251031  0.44671627  0.33156897  1
  H  H56  1  0.22392418  0.48592019  0.32507588  1
  H  H57  1  0.14181135  0.06623274  0.32710030  1
  C  C58  1  0.18752842  0.03237132  0.35228514  1
  O  O59  1  0.18277923  0.12017509  0.26649452  1
  O  O60  1  0.00076176  0.17518151  0.40314259  1
  N  N61  1  0.49971249  0.15195018  0.47107774  1
  N  N62  1  0.22606297  0.02109803  0.43391852  1
  H  H63  1  0.48841616  0.26041636  0.35809087  1
  C  C64  1  0.40227231  0.32973984  0.25623035  1
  C  C65  1  0.25776695  0.41172109  0.64129784  1
  H  H66  1  0.40258429  0.20195258  0.66644833  1
  O  O67  1  0.02950490  0.42840768  0.56094461  1
  C  C68  1  0.33271564  0.36117478  0.65147477  1
  C  C69  1  0.29395986  0.03115951  0.68089744  1
  C  C70  1  0.28134985  0.15528422  0.66556288  1
  C  C71  1  0.05695300  0.15564685  0.64849050  1
  C  C72  1  0.13272295  0.13058683  0.66727111  1
  O  O73  1  0.10706293  0.40836731  0.73962194  1
  C  C74  1  0.20079325  0.20805628  0.65761740  1
  C  C75  1  0.11705337  0.33289761  0.61226284  1
  C  C76  1  0.19422906  0.32564032  0.63636343  1
  C  C77  1  0.34316674  0.24080585  0.66149451  1
  C  C78  1  0.09758561  0.42606894  0.57753399  1
  C  C79  1  0.05070990  0.25830391  0.62213576  1
  H  H80  1  0.38819935  0.41336701  0.65089837  1
  O  O81  1  0.15618237  0.49387748  0.56695569  1
  H  H82  1  0.49487347  0.23149022  0.58595794  1
  N  N83  1  0.22567379  0.00304376  0.70656835  1
  C  C84  1  0.14650163  0.01219392  0.68771013  1
  C  C85  1  0.30991073  0.36443861  0.84164251  1
  C  C86  1  0.30752147  0.45129706  0.87712546  1
  C  C87  1  0.34480206  0.40800103  0.92598272  1
  H  H88  1  0.34308840  0.28011136  0.84748404  1
  O  O89  1  0.30742939  0.42387781  0.96515326  1
  C  C90  1  0.17205005  0.06007443  0.78650865  1
  C  C91  1  0.26536916  0.36548958  0.80042425  1
  O  O92  1  0.40347091  0.34331262  0.92502486  1
  N  N93  1  0.26162692  0.07134840  0.85349277  1
  C  C94  1  0.13864559  0.47602868  0.76424008  1
  H  H95  1  0.10807600  0.07762782  0.77532425  1
  O  O96  1  0.49542442  0.02575931  0.95879858  1
  H  H97  1  0.26896702  0.29386851  0.77395491  1
  C  C98  1  0.20914798  0.45993420  0.79447066  1
  C  C99  1  0.19280854  0.08858103  0.83222373  1
  H  H100  1  0.14928277  0.12185297  0.85639676  1
  Zn  Zn101  1  0.04689600  0.47769658  0.85979275  1
  H  H102  1  0.00912705  0.11804807  0.89874874  1
  C  C103  1  0.00185793  0.07707889  0.86595958  1
  C  C104  1  0.23515963  0.01336517  0.75666005  1
  O  O105  1  0.00096207  0.34045184  0.89695637  1
  C  C106  1  0.32218979  0.04981630  0.82423460  1
  C  C107  1  0.31266186  0.01271304  0.77783031  1
  H  H108  1  0.38144830  0.03531978  0.84101095  1
  C  C109  1  0.32144418  0.94548668  0.13726592  1
  C  C110  1  0.06194773  0.60995362  0.08617958  1
  C  C111  1  0.35686529  0.89613178  0.22139922  1
  C  C112  1  0.40900324  0.77878540  0.15773523  1
  H  H113  1  0.04337156  0.96459264  0.21237331  1
  C  C114  1  0.36637274  0.83810285  0.12493704  1
  C  C115  1  0.36224549  0.78584467  0.07695998  1
  C  C116  1  0.40871830  0.80960150  0.20508014  1
  C  C117  1  0.15334620  0.75187038  0.10606627  1
  N  N118  1  0.11386859  0.69110271  0.07246206  1
  C  C119  1  0.14282993  0.73509643  0.15371290  1
  C  C120  1  0.04316215  0.59853645  0.13381032  1
  C  C121  1  0.08291784  0.65901338  0.17116278  1
  H  H122  1  0.19571168  0.80882462  0.08354942  1
  H  H123  1  0.44443560  0.70003880  0.14529451  1
  Zn  Zn124  1  0.37921938  0.55740524  0.01462469  1
  C  C125  1  0.31130743  0.96097397  0.18821261  1
  O  O126  1  0.39561876  0.68612876  0.07230133  1
  O  O127  1  0.32300247  0.83238778  0.04451130  1
  H  H128  1  0.18370428  0.78834370  0.17714146  1
  N  N129  1  0.06113886  0.65752827  0.22023329  1
  H  H130  1  0.44453411  0.76285351  0.23066399  1
  O  O131  1  0.15774256  0.79602779  0.24466279  1
  H  H132  1  0.03116590  0.56367017  0.05832466  1
  H  H133  1  0.41246714  0.51313259  0.11352965  1
  N  N134  1  0.28109138  0.98137673  0.28788520  1
  C  C135  1  0.33695626  0.62162555  0.44743308  1
  C  C136  1  0.38559180  0.56196558  0.40555596  1
  H  H137  1  0.45324198  0.72806957  0.40046394  1
  C  C138  1  0.34471946  0.90963261  0.27317063  1
  C  C139  1  0.43789205  0.64308299  0.38510818  1
  O  O140  1  0.39316959  0.86232606  0.29774909  1
  O  O141  1  0.25925964  0.62849112  0.45063745  1
  C  C142  1  0.08408814  0.71451872  0.30251806  1
  O  O143  1  0.06908195  0.58732193  0.47510445  1
  C  C144  1  0.10534672  0.76817304  0.38280858  1
  H  H145  1  0.18502548  0.82282396  0.32474730  1
  C  C146  1  0.04098983  0.70136038  0.39700740  1
  O  O147  1  0.37782107  0.68022680  0.47403843  1
  O  O148  1  0.04158370  0.77823295  0.47441860  1
  C  C149  1  0.04925254  0.69171141  0.45229310  1
  C  C150  1  0.13036793  0.77271680  0.33600134  1
  H  H151  1  0.14206489  0.81765748  0.40889013  1
  C  C152  1  0.31670330  0.95769831  0.37377298  1
  C  C153  1  0.44809911  0.52594453  0.31286747  1
  C  C154  1  0.46785738  0.62746261  0.33911641  1
  C  C155  1  0.01432711  0.65185733  0.31897737  1
  C  C156  1  0.47810734  0.52133578  0.26275553  1
  H  H157  1  0.37802295  0.93321194  0.36475413  1
  C  C158  1  0.26274395  0.98533202  0.33665118  1
  C  C159  1  0.10626274  0.72412479  0.25156445  1
  C  C160  1  0.29713359  0.97575982  0.42129340  1
  H  H161  1  0.33154848  0.96068840  0.45590675  1
  Zn  Zn162  1  0.18884650  0.52761727  0.49635687  1
  N  N163  1  0.31742981  0.75836187  0.70781757  1
  C  C164  1  0.37200631  0.83524667  0.69929364  1
  O  O165  1  0.19013271  0.60736593  0.65361816  1
  O  O166  1  0.10215968  0.92653162  0.68438254  1
  C  C167  1  0.25299657  0.55137106  0.64237582  1
  C  C168  1  0.45414573  0.81810292  0.70492927  1
  O  O169  1  0.09465288  0.67894805  0.73469435  1
  H  H170  1  0.49374059  0.89011082  0.69171000  1
  O  O171  1  0.31497903  0.60251426  0.63449234  1
  C  C172  1  0.49224111  0.72102809  0.72783967  1
  Zn  Zn173  1  0.19027572  0.76244450  0.69807232  1
  O  O174  1  0.35738772  0.97315712  0.67862655  1
  C  C175  1  0.35189697  0.66734302  0.73216881  1
  C  C176  1  0.43318786  0.63546635  0.74066631  1
  H  H177  1  0.30385506  0.60569003  0.73838347  1
  N  N178  1  0.03568785  0.59361468  0.80163595  1
  C  C179  1  0.23478512  0.77597109  0.86571334  1
  C  C180  1  0.04583801  0.68896068  0.92521339  1
  H  H181  1  0.24250283  0.85932450  0.88472441  1
  C  C182  1  0.27804894  0.68329518  0.88669660  1
  C  C183  1  0.32087132  0.71905503  0.92987192  1
  H  H184  1  0.37031935  0.97698043  0.75918277  1
  H  H185  1  0.14349192  0.84880004  0.81411487  1
  C  C186  1  0.27137316  0.56486938  0.86812043  1
  H  H187  1  0.04585115  0.84354798  0.97060476  1
  C  C188  1  0.17944530  0.76944527  0.82842124  1
  O  O189  1  0.31466127  0.82440357  0.94397246  1
  O  O190  1  0.36361606  0.64170910  0.94978454  1
  C  C191  1  0.16877560  0.65422708  0.80985851  1
  C  C192  1  0.10326735  0.61312810  0.77063615  1
  H  H193  1  0.10736131  0.71437638  0.91159900  1
  Zn  Zn194  1  0.39971997  0.92174842  0.98579533  1
  C  C195  1  0.21866106  0.56368352  0.82605175  1
  N  N196  1  0.01307763  0.96193221  0.87218991  1
  H  H197  1  0.44893422  0.55300782  0.75805780  1
  C  C198  1  0.00252422  0.58926155  0.91041707  1
  C  C199  1  0.00977421  0.76628207  0.95838916  1
  H  H200  1  0.00464417  0.79253644  0.84784721  1
  C  C201  1  0.63934206  0.04167134  0.10311359  1
  H  H202  1  0.74404264  0.23056021  0.23659679  1
  O  O203  1  0.77836587  0.07081377  0.18706834  1
  O  O204  1  0.86368917  0.09886905  0.13194939  1
  C  C205  1  0.62250530  0.05761328  0.15578000  1
  O  O206  1  0.90265065  0.25124252  0.01993249  1
  O  O207  1  0.81512248  0.15271160  0.05982320  1
  C  C208  1  0.79417108  0.27223937  0.17031918  1
  C  C209  1  0.82035276  0.35764402  0.13539152  1
  C  C210  1  0.75989504  0.30449551  0.21202698  1
  C  C211  1  0.91997930  0.23424388  0.24934328  1
  C  C212  1  0.60876088  0.17412858  0.16940753  1
  C  C213  1  0.85810933  0.24537025  0.05361111  1
  O  O214  1  0.60736757  0.10604550  0.07455523  1
  H  H215  1  0.62038600  0.24464390  0.14631903  1
  C  C216  1  0.81078954  0.14109315  0.16219981  1
  C  C217  1  0.58630042  0.20009561  0.21590537  1
  C  C218  1  0.81312165  0.48138413  0.15128010  1
  C  C219  1  0.84538363  0.35059229  0.08822729  1
  H  H220  1  0.95230547  0.23656811  0.17578907  1
  C  C221  1  0.87226885  0.44882469  0.06368144  1
  C  C222  1  0.74799607  0.42331174  0.22230998  1
  H  H223  1  0.58030242  0.29163863  0.22795627  1
  N  N224  1  0.53084160  0.37825900  0.09075861  1
  C  C225  1  0.54661490  0.46492506  0.12092456  1
  H  H226  1  0.89156078  0.44272315  0.02607125  1
  C  C227  1  0.97129562  0.25744694  0.21174209  1
  C  C228  1  0.52365643  0.48903741  0.16735012  1
  H  H229  1  0.85697742  0.20120077  0.24145187  1
  Zn  Zn230  1  0.75625839  0.39906055  0.48855454  1
  O  O231  1  0.73850410  0.13414460  0.42653556  1
  Zn  Zn232  1  0.87529230  0.14237515  0.42351012  1
  O  O233  1  0.56123531  0.26025382  0.30406757  1
  C  C234  1  0.56628490  0.15433065  0.29905182  1
  H  H235  1  0.81642037  0.47945790  0.34861640  1
  C  C236  1  0.71414226  0.13116868  0.46742114  1
  C  C237  1  0.86248079  0.24887670  0.32422367  1
  O  O238  1  0.86775616  0.27723092  0.36632203  1
  C  C239  1  0.94165843  0.26206439  0.29606832  1
  O  O240  1  0.80026768  0.21643353  0.30588680  1
  N  N241  1  0.55913649  0.05904980  0.33101580  1
  C  C242  1  0.53768060  0.08882548  0.37666961  1
  C  C243  1  0.50181122  0.19900902  0.38817297  1
  C  C244  1  0.55239866  0.01356155  0.41725348  1
  O  O245  1  0.80693445  0.49713242  0.42557138  1
  C  C246  1  0.69720346  0.01380356  0.48842285  1
  O  O247  1  0.70723803  0.22278885  0.49422058  1
  O  O248  1  0.89106342  0.14168262  0.49744509  1
  C  C249  1  0.53404865  0.04557747  0.46205365  1
  C  C250  1  0.57943860  0.11498469  0.25108294  1
  Zn  Zn251  1  0.98836365  0.44222287  0.48918745  1
  H  H252  1  0.87459325  0.48566322  0.26601993  1
  O  O253  1  0.62712933  0.47982180  0.48534957  1
  H  H254  1  0.71734008  0.44685268  0.25456131  1
  C  C255  1  0.93369938  0.42826347  0.64309664  1
  C  C256  1  0.87100187  0.27708160  0.70443371  1
  H  H257  1  0.67523641  0.11368127  0.55002510  1
  C  C258  1  0.84646363  0.20858285  0.66234150  1
  C  C259  1  0.54556755  0.40495103  0.55896307  1
  C  C260  1  0.86984518  0.01132938  0.62586095  1
  C  C261  1  0.86167393  0.06411850  0.58214187  1
  C  C262  1  0.54075209  0.43250733  0.65560643  1
  C  C263  1  0.87240393  0.39171743  0.60993075  1
  H  H264  1  0.98094536  0.38345607  0.71792593  1
  Zn  Zn265  1  0.81159462  0.41407605  0.66939367  1
  C  C266  1  0.86273486  0.18906239  0.57392860  1
  C  C267  1  0.84153258  0.26864168  0.61298248  1
  C  C268  1  0.86609942  0.08291606  0.66614917  1
  C  C269  1  0.92618617  0.37482532  0.69394839  1
  C  C270  1  0.87728835  0.22521741  0.52560923  1
  C  C271  1  0.67913349  0.01983721  0.53657103  1
  H  H272  1  0.53470662  0.44085064  0.69462910  1
  O  O273  1  0.74108468  0.41041681  0.56176691  1
  O  O274  1  0.88691082  0.33234884  0.51018056  1
  H  H275  1  0.86628850  0.00875292  0.55016448  1
  C  C276  1  0.89313111  0.01738331  0.70931297  1
  N  N277  1  0.52470098  0.32626602  0.63777640  1
  C  C278  1  0.81508337  0.48092209  0.58961991  1
  C  C279  1  0.52281582  0.31744264  0.59171233  1
  H  H280  1  0.53808314  0.38331880  0.52083047  1
  N  N281  1  0.90762989  0.09222816  0.74817227  1
  C  C282  1  0.88163972  0.21021821  0.74871616  1
  H  H283  1  0.99103076  0.28083508  0.60639113  1
  H  H284  1  0.99996823  0.10260639  0.65365784  1
  H  H285  1  0.70857905  0.48010133  0.55315708  1
  H  H286  1  0.98813381  0.47138508  0.63176617  1
  H  H287  1  0.61165712  0.08148353  0.87651571  1
  C  C288  1  0.88404828  0.43800534  0.92392189  1
  C  C289  1  0.81582053  0.01180698  0.87370799  1
  C  C290  1  0.92250303  0.33120766  0.90317993  1
  H  H291  1  0.77293557  0.34436203  0.93561676  1
  H  H292  1  0.56312401  0.44773323  0.84419583  1
  O  O293  1  0.62303357  0.00648827  0.97179841  1
  O  O294  1  0.88493630  0.24019479  0.89824205  1
  H  H295  1  0.85022999  0.08800334  0.85793595  1
  C  C296  1  0.94344323  0.04891735  0.78945298  1
  O  O297  1  0.85780460  0.27294392  0.77926832  1
  C  C298  1  0.80541617  0.42530471  0.94104524  1
  C  C299  1  0.96615153  0.12649476  0.82624775  1
  H  H300  1  0.95562035  0.22258534  0.82641298  1
  H  H301  1  0.61675193  0.02851788  0.79086877  1
  H  H302  1  0.84700493  0.03318884  0.94825390  1
  O  O303  1  0.55791016  0.18712050  0.77061314  1
  O  O304  1  0.54224667  0.26462492  0.84521915  1
  C  C305  1  0.54854293  0.22733378  0.80756180  1
  C  C306  1  0.84259125  0.58431560  0.12498036  1
  C  C307  1  0.86797314  0.56555527  0.07888798  1
  C  C308  1  0.93252465  0.86087896  0.19457674  1
  H  H309  1  0.62741234  0.66995078  0.20474625  1
  O  O310  1  0.89710810  0.92317040  0.02289646  1
  Zn  Zn311  1  0.83169461  0.96826927  0.08907627  1
  N  N312  1  0.82535428  0.71855918  0.18790630  1
  C  C313  1  0.62019167  0.83925527  0.17772020  1
  O  O314  1  0.57135319  0.80917551  0.09560077  1
  Zn  Zn315  1  0.62517944  0.87800682  0.02975577  1
  C  C316  1  0.85730305  0.81957608  0.20984690  1
  H  H317  1  0.87455722  0.64100889  0.05438884  1
  H  H318  1  0.95695257  0.83266863  0.16056039  1
  C  C319  1  0.84101712  0.70903046  0.14098899  1
  C  C320  1  0.61286088  0.77024958  0.12972012  1
  C  C321  1  0.77889705  0.63574407  0.21456581  1
  O  O322  1  0.85686812  0.78826636  0.11250011  1
  C  C323  1  0.61614973  0.96236948  0.18698850  1
  O  O324  1  0.95628780  0.53507932  0.20279975  1
  C  C325  1  0.62167738  0.76302706  0.21459611  1
  O  O326  1  0.51274407  0.60208488  0.24575477  1
  H  H327  1  0.58454383  0.52924325  0.09984535  1
  O  O328  1  0.63361146  0.66661651  0.12889746  1
  O  O329  1  0.68725636  0.71566115  0.00819196  1
  H  H330  1  0.53179669  0.58060275  0.18254220  1
  C  C331  1  0.59391237  0.99384851  0.23642342  1
  C  C332  1  0.98144367  0.93325014  0.22317476  1
  H  H333  1  0.99652597  0.52768568  0.14033322  1
  C  C334  1  0.99341781  0.59107977  0.23076191  1
  C  C335  1  0.77971413  0.51221971  0.19492468  1
  O  O336  1  0.68856504  0.96232000  0.08970819  1
  C  C337  1  0.88341756  0.93791532  0.28076103  1
  C  C338  1  0.72694677  0.85933858  0.42262676  1
  O  O339  1  0.75818808  0.92534246  0.34426330  1
  O  O340  1  0.84652710  0.96966485  0.39537300  1
  N  N341  1  0.95556221  0.97265761  0.26355525  1
  C  C342  1  0.70051313  0.89832416  0.46745963  1
  H  H343  1  0.62213383  0.72866620  0.29319756  1
  C  C344  1  0.87238983  0.52218367  0.34136985  1
  H  H345  1  0.66773051  0.57400517  0.41595667  1
  H  H346  1  0.77444985  0.82505192  0.26808870  1
  H  H347  1  0.73140062  0.73164567  0.36651573  1
  C  C348  1  0.87389067  0.55200375  0.42522858  1
  C  C349  1  0.71283062  0.75143957  0.40191809  1
  H  H350  1  0.87068547  0.97220164  0.31466547  1
  C  C351  1  0.57098657  0.93746407  0.32259502  1
  C  C352  1  0.67465476  0.66219363  0.42909742  1
  O  O353  1  0.56985913  0.85802654  0.34955409  1
  O  O354  1  0.90514965  0.58425181  0.46295433  1
  C  C355  1  0.97382683  0.58557378  0.28319444  1
  C  C356  1  0.91348647  0.57483972  0.37817854  1
  C  C357  1  0.65567607  0.68502394  0.47710884  1
  C  C358  1  0.90161511  0.52965711  0.29537111  1
  H  H359  1  0.57891260  0.92779191  0.40951286  1
  C  C360  1  0.59078174  0.90849387  0.27237524  1
  C  C361  1  0.78038749  0.92127752  0.38481587  1
  H  H362  1  0.50121193  0.69819379  0.32121144  1
  H  H363  1  0.53886552  0.98552232  0.49370045  1
  C  C364  1  0.98756726  0.63494286  0.36878734  1
  C  C365  1  0.61160150  0.79262838  0.26262564  1
  C  C366  1  0.83754239  0.85432504  0.25725652  1
  C  C367  1  0.66775515  0.80121126  0.49589937  1
  O  O368  1  0.74987657  0.64642049  0.25156457  1
  O  O369  1  0.81682204  0.58626239  0.58683308  1
  H  H370  1  0.88475311  0.91944249  0.63208669  1
  O  O371  1  0.90441135  0.91419890  0.70625227  1
  O  O372  1  0.64455927  0.87106929  0.72672530  1
  H  H373  1  0.81541131  0.72732195  0.70608909  1
  O  O374  1  0.61949764  0.73415745  0.61232944  1
  C  C375  1  0.85007708  0.68427246  0.73421689  1
  N  N376  1  0.60706503  0.60566910  0.54852954  1
  C  C377  1  0.56899627  0.51763724  0.57628029  1
  C  C378  1  0.62880313  0.71307123  0.57210502  1
  C  C379  1  0.65334060  0.81708029  0.54444647  1
  H  H380  1  0.97242087  0.70433205  0.71363292  1
  C  C381  1  0.56324783  0.52600949  0.62699861  1
  C  C382  1  0.93200930  0.67551880  0.74192773  1
  H  H383  1  0.57690670  0.60604678  0.64584136  1
  C  C384  1  0.66140694  0.92725176  0.56556982  1
  H  H385  1  0.65278414  0.94108987  0.60386262  1
  C  C386  1  0.62378644  0.58010159  0.50248275  1
  C  C387  1  0.54561333  0.57022180  0.90437866  1
  C  C388  1  0.80651126  0.62343209  0.97190593  1
  H  H389  1  0.79262175  0.97769352  0.80921002  1
  H  H390  1  0.73138727  0.78921390  0.82159675  1
  C  C391  1  0.95973499  0.62337763  0.78529233  1
  H  H392  1  0.75910856  0.59043103  0.82392086  1
  C  C393  1  0.87714211  0.83766843  0.99849151  1
  C  C394  1  0.52205164  0.69372249  0.97103077  1
  C  C395  1  0.92678712  0.55203275  0.92855848  1
  N  N396  1  0.77985854  0.94106347  0.84201026  1
  C  C397  1  0.59589281  0.84137457  0.80673803  1
  N  N398  1  0.80413613  0.81465232  0.97761215  1
  C  C399  1  0.55765152  0.78770971  0.89058561  1
  C  C400  1  0.99189926  0.88734997  0.83843389  1
  C  C401  1  0.88801907  0.64371788  0.95740586  1
  C  C402  1  0.89326101  0.59364395  0.81489024  1
  C  C403  1  0.56872723  0.90890627  0.90083589  1
  C  C404  1  0.92882594  0.75186806  0.97284530  1
  C  C405  1  0.79028991  0.86209992  0.93238587  1
  C  C406  1  0.74557855  0.79381373  0.89969598  1
  H  H407  1  0.71790683  0.71169791  0.90819458  1
  C  C408  1  0.95821576  0.92469690  0.79687549  1
  C  C409  1  0.57534391  0.75252677  0.84187009  1
  C  C410  1  0.75575434  0.71671241  0.99200654  1
  N  N411  1  0.78915024  0.64889127  0.76132618  1
  C  C412  1  0.56928567  0.63364539  0.82632234  1
  C  C413  1  0.81844418  0.97943870  0.92153555  1
  C  C414  1  0.81186519  0.60324751  0.80257586  1
  C  C415  1  0.58619958  0.60344070  0.77473795  1
  C  C416  1  0.75055165  0.83445396  0.85375007  1
  C  C417  1  0.53884397  0.68836122  0.92118407  1
  C  C418  1  0.55681767  0.54315513  0.85773071  1
  O  O419  1  0.51323748  0.79382639  0.99135335  1
  C  C420  1  0.56351424  0.98166646  0.94758934  1
  H  H421  1  0.94027927  0.86394977  0.76977520  1
  C  C422  1  0.60057794  0.96021484  0.81794290  1
  O  O423  1  0.50832697  0.60227733  0.99476164  1
  O  O424  1  0.59822068  0.50500171  0.76112740  1
  C  C425  1  0.61391150  0.80963217  0.75611750  1
  C  C426  1  0.59337387  0.99057337  0.86665431  1
  H  H427  1  0.91026793  0.55835665  0.84870685  1
  C  C428  1  0.76456172  0.51684376  0.96123955  1
  H  H429  1  0.54155468  0.50153566  0.93314916  1
  H  H430  1  0.70343660  0.51130068  0.97441743  1
  N  N431  1  0.56843251  0.71038590  0.75030796  1
