# generated using pymatgen
data_ZnH8C19(NO3)2
_symmetry_space_group_name_H-M   'P 1'
_cell_length_a   13.43511129
_cell_length_b   15.11217695
_cell_length_c   26.39150701
_cell_angle_alpha   90.00000000
_cell_angle_beta   90.00000000
_cell_angle_gamma   90.00000000
_symmetry_Int_Tables_number   1
_chemical_formula_structural   ZnH8C19(NO3)2
_chemical_formula_sum   'Zn12 H96 C228 N24 O72'
_cell_volume   5358.36740458
_cell_formula_units_Z   12
loop_
 _symmetry_equiv_pos_site_id
 _symmetry_equiv_pos_as_xyz
  1  'x, y, z'
loop_
 _atom_site_type_symbol
 _atom_site_label
 _atom_site_symmetry_multiplicity
 _atom_site_fract_x
 _atom_site_fract_y
 _atom_site_fract_z
 _atom_site_occupancy
  C  C0  1  0.29807361  0.04249430  0.01787002  1
  C  C1  1  0.43780840  0.04288562  0.08640723  1
  C  C2  1  0.39045077  0.07248546  0.17145743  1
  H  H3  1  0.40956870  0.08606069  0.21125382  1
  C  C4  1  0.28669639  0.05353273  0.16232205  1
  C  C5  1  0.46424249  0.06891708  0.13718872  1
  C  C6  1  0.33651178  0.03995353  0.06736528  1
  C  C7  1  0.21843231  0.04829984  0.20432846  1
  H  H8  1  0.06018359  0.13180393  0.22862809  1
  C  C9  1  0.26339276  0.03579361  0.10954229  1
  C  C10  1  0.19375180  0.03909366  0.00842374  1
  C  C11  1  0.12976981  0.02818474  0.04880175  1
  C  C12  1  0.15933443  0.02904933  0.09972583  1
  H  H13  1  0.04819866  0.02987870  0.04468728  1
  N  N14  1  0.13200099  0.00900387  0.18926866  1
  C  C15  1  0.08395257  0.02336293  0.14191226  1
  O  O16  1  0.24161185  0.07490500  0.24877663  1
  O  O17  1  0.02794120  0.20245700  0.46080197  1
  C  C18  1  0.11306360  0.16009509  0.37010493  1
  C  C19  1  0.06835553  0.13925463  0.27077426  1
  C  C20  1  0.46060575  0.10189761  0.32536299  1
  C  C21  1  0.33069122  0.18359132  0.45082829  1
  C  C22  1  0.01481580  0.18339025  0.35557435  1
  H  H23  1  0.13061565  0.15951951  0.41272400  1
  N  N24  1  0.15222532  0.12092002  0.28870700  1
  O  O25  1  0.34978546  0.12964486  0.48779326  1
  C  C26  1  0.18766091  0.13507540  0.33449838  1
  C  C27  1  0.46920553  0.18582994  0.29911591  1
  H  H28  1  0.26682434  0.11765096  0.34065226  1
  C  C29  1  0.40432578  0.09217515  0.37333853  1
  C  C30  1  0.37391470  0.17231516  0.39686201  1
  C  C31  1  0.38005029  0.00432207  0.38676561  1
  Zn  Zn32  1  0.22794847  0.14360001  0.63431259  1
  O  O33  1  0.07263977  0.17661886  0.65321316  1
  O  O34  1  0.26678772  0.13160995  0.72197976  1
  O  O35  1  0.35556835  0.04723324  0.63824385  1
  C  C36  1  0.06963089  0.05430108  0.57138878  1
  O  O37  1  0.05861192  0.15513475  0.73217351  1
  O  O38  1  0.12230131  0.03217062  0.60918658  1
  O  O39  1  0.11334968  0.06343637  0.52919723  1
  Zn  Zn40  1  0.27140809  0.03114769  0.52726106  1
  O  O41  1  0.27081928  0.23690183  0.58188437  1
  C  C42  1  0.33471915  0.08964427  0.74601983  1
  C  C43  1  0.02803789  0.13916863  0.68807737  1
  C  C44  1  0.36817829  0.06416150  0.97430842  1
  O  O45  1  0.39962188  0.13738452  0.76417059  1
  Zn  Zn46  1  0.18124087  0.23909695  0.76196455  1
  C  C47  1  0.04527352  0.13668891  0.85689427  1
  H  H48  1  0.07067364  0.20633052  0.85666055  1
  H  H49  1  0.18024136  0.08287565  0.88905147  1
  H  H50  1  0.35444646  0.04531980  0.82934985  1
  H  H51  1  0.16680657  0.04749049  0.97125612  1
  O  O52  1  0.32964128  0.07103469  0.93392706  1
  C  C53  1  0.10489383  0.07035646  0.87699350  1
  O  O54  1  0.46294231  0.07973464  0.98181659  1
  C  C55  1  0.32415104  0.37984524  0.14467509  1
  C  C56  1  0.31224129  0.31566700  0.18302336  1
  C  C57  1  0.24930181  0.32322843  0.22404204  1
  C  C58  1  0.19922088  0.47073611  0.20238567  1
  C  C59  1  0.42439473  0.35554550  0.10985898  1
  C  C60  1  0.26180576  0.46457613  0.15462629  1
  C  C61  1  0.19052520  0.39801857  0.23509643  1
  O  O62  1  0.42919319  0.30588877  0.07183948  1
  Zn  Zn63  1  0.35147670  0.47580964  0.08317334  1
  H  H64  1  0.24283000  0.26468444  0.24814723  1
  H  H65  1  0.35735182  0.25375571  0.17904334  1
  C  C66  1  0.42337839  0.25815275  0.32568447  1
  C  C67  1  0.05765336  0.43635830  0.38692039  1
  H  H68  1  0.34956453  0.31486406  0.39110045  1
  H  H69  1  0.07380331  0.36686501  0.38301345  1
  C  C70  1  0.13461831  0.39519509  0.28424173  1
  H  H71  1  0.43926664  0.32080528  0.30760146  1
  N  N72  1  0.09060021  0.47651987  0.29554086  1
  O  O73  1  0.13162349  0.33149382  0.31102518  1
  C  C74  1  0.02649864  0.46922324  0.43246154  1
  C  C75  1  0.37387064  0.25339724  0.37089520  1
  C  C76  1  0.06658421  0.49983062  0.34493280  1
  H  H77  1  0.00815415  0.42767481  0.46510841  1
  O  O78  1  0.47605844  0.45596182  0.45144302  1
  O  O79  1  0.28699002  0.25291171  0.45928378  1
  C  C80  1  0.27712726  0.40351228  0.57024617  1
  C  C81  1  0.17102383  0.43868644  0.64714416  1
  C  C82  1  0.21091180  0.36448507  0.67756025  1
  C  C83  1  0.20878489  0.45547581  0.59663566  1
  O  O84  1  0.17633774  0.35547278  0.72092331  1
  O  O85  1  0.28163519  0.31372698  0.66078618  1
  C  C86  1  0.31829337  0.42574033  0.52392807  1
  C  C87  1  0.31248287  0.31018075  0.59444246  1
  O  O88  1  0.40775015  0.30027077  0.59741975  1
  O  O89  1  0.47243202  0.35039095  0.74438825  1
  Zn  Zn90  1  0.46930738  0.30169771  0.66757052  1
  H  H91  1  0.05921598  0.48489839  0.70007264  1
  H  H92  1  0.37499020  0.38043426  0.50950342  1
  C  C93  1  0.10121067  0.49941293  0.66534269  1
  H  H94  1  0.46186811  0.44519570  0.89601175  1
  N  N95  1  0.10749141  0.48777797  0.89575624  1
  O  O96  1  0.19225999  0.26803060  0.83404534  1
  H  H97  1  0.14721378  0.38376622  0.84566191  1
  C  C98  1  0.15285166  0.45977626  0.85412560  1
  C  C99  1  0.47325278  0.48885308  0.92955676  1
  H  H100  1  0.26103022  0.26461170  0.84345620  1
  C  C101  1  0.19304232  0.61803194  0.13446831  1
  C  C102  1  0.12941764  0.61682290  0.17892312  1
  H  H103  1  0.18863186  0.66998397  0.10640827  1
  H  H104  1  0.07925430  0.67090688  0.18908710  1
  C  C105  1  0.13418142  0.54370976  0.21146722  1
  N  N106  1  0.37550478  0.70805387  0.05187271  1
  C  C107  1  0.46881094  0.72017446  0.07228156  1
  C  C108  1  0.25355021  0.54608673  0.12663349  1
  C  C109  1  0.35082206  0.66879064  0.00548641  1
  O  O110  1  0.42378451  0.59124683  0.20951433  1
  H  H111  1  0.39526499  0.73640367  0.37062404  1
  C  C112  1  0.03638648  0.61354677  0.41284656  1
  C  C113  1  0.46159108  0.71224501  0.34951931  1
  C  C114  1  0.07154629  0.54288336  0.25847445  1
  O  O115  1  0.01831848  0.60621266  0.26119582  1
  H  H116  1  0.38515996  0.66697114  0.28197394  1
  H  H117  1  0.03489679  0.67826817  0.42955421  1
  N  N118  1  0.01294097  0.55284541  0.44906555  1
  H  H119  1  0.33579219  0.51589377  0.46123921  1
  C  C120  1  0.05247867  0.58821845  0.36266063  1
  C  C121  1  0.45936496  0.66537882  0.30243297  1
  H  H122  1  0.06373907  0.64033847  0.33275215  1
  O  O123  1  0.25023274  0.67886336  0.45971443  1
  C  C124  1  0.20734475  0.65028260  0.49570347  1
  C  C125  1  0.29381411  0.50415238  0.49698501  1
  H  H126  1  0.24210201  0.68430218  0.65510360  1
  O  O127  1  0.23739773  0.60385156  0.73247109  1
  C  C128  1  0.08625047  0.67832378  0.56664635  1
  C  C129  1  0.11214802  0.59549618  0.59310265  1
  C  C130  1  0.22898510  0.56180239  0.52236103  1
  N  N131  1  0.13425213  0.70056930  0.52050087  1
  C  C132  1  0.07167260  0.57462747  0.64023121  1
  H  H133  1  0.43497752  0.64923916  0.68565228  1
  C  C134  1  0.18117659  0.53869655  0.56918918  1
  H  H135  1  0.00856707  0.61135464  0.65398385  1
  O  O136  1  0.46315016  0.52127625  0.63764250  1
  C  C137  1  0.48199907  0.62595040  0.71847718  1
  C  C138  1  0.26931703  0.74487107  0.67464312  1
  O  O139  1  0.01957307  0.71931596  0.58638492  1
  H  H140  1  0.24462233  0.50213488  0.78946409  1
  C  C141  1  0.21003343  0.52139964  0.82554955  1
  H  H142  1  0.09932140  0.57514867  0.95195950  1
  C  C143  1  0.32139482  0.74092703  0.83672070  1
  C  C144  1  0.25770322  0.66784409  0.75732172  1
  C  C145  1  0.13168745  0.56993092  0.91316641  1
  C  C146  1  0.18347060  0.63445915  0.88930019  1
  O  O147  1  0.36494895  0.73591192  0.87514924  1
  N  N148  1  0.27103989  0.67511819  0.80935232  1
  C  C149  1  0.22835410  0.60890973  0.84118160  1
  O  O150  1  0.28141962  0.68026734  0.97815419  1
  C  C151  1  0.43165962  0.60664563  0.98758277  1
  H  H152  1  0.34278362  0.58133722  0.91994485  1
  C  C153  1  0.40868527  0.56025340  0.94238919  1
  H  H154  1  0.18897375  0.70377481  0.90199647  1
  N  N155  1  0.12767830  0.82980004  0.12628162  1
  C  C156  1  0.21589194  0.81777818  0.15008597  1
  C  C157  1  0.12670815  0.81494339  0.07724053  1
  H  H158  1  0.04896359  0.82794619  0.06432852  1
  C  C159  1  0.07917603  0.94768771  0.21944330  1
  C  C160  1  0.20855582  0.77916321  0.04808166  1
  H  H161  1  0.21222702  0.83409475  0.19173114  1
  C  C162  1  0.30062336  0.78926175  0.12561828  1
  H  H163  1  0.19857804  0.76978437  0.00661741  1
  O  O164  1  0.49793674  0.77560764  0.10054967  1
  H  H165  1  0.37246067  0.78556547  0.14523439  1
  C  C166  1  0.29910434  0.76207416  0.07351967  1
  O  O167  1  0.34323137  0.80930653  0.23460024  1
  H  H168  1  0.15581878  0.96172242  0.29353790  1
  O  O169  1  0.19933070  0.96769986  0.40759144  1
  H  H170  1  0.39907816  0.86051724  0.37394162  1
  C  C171  1  0.00676272  0.90472562  0.47759654  1
  C  C172  1  0.29632994  0.80733528  0.27206103  1
  O  O173  1  0.24709934  0.80186090  0.30822996  1
  C  C174  1  0.02904895  0.88287372  0.30087151  1
  C  C175  1  0.15178047  0.82636289  0.45754932  1
  H  H176  1  0.22475415  0.80355620  0.44451926  1
  H  H177  1  0.03425960  0.86976078  0.34275000  1
  O  O178  1  0.31457749  0.93368598  0.46350841  1
  C  C179  1  0.09202069  0.93405188  0.27172644  1
  C  C180  1  0.29399108  0.97185027  0.42252778  1
  N  N181  1  0.02939671  0.94400147  0.43795673  1
  C  C182  1  0.12081600  0.90972684  0.43997460  1
  C  C183  1  0.41427219  0.92812060  0.36082569  1
  O  O184  1  0.49117014  0.79415346  0.44528018  1
  C  C185  1  0.47553475  0.94566507  0.31844955  1
  C  C186  1  0.10312725  0.77890540  0.49708021  1
  C  C187  1  0.31353824  0.90353202  0.66854242  1
  C  C188  1  0.31659492  0.91442233  0.72200558  1
  C  C189  1  0.29243398  0.82176852  0.64751012  1
  H  H190  1  0.29122135  0.81941789  0.60448064  1
  O  O191  1  0.32813283  0.94613457  0.58148485  1
  C  C192  1  0.33427669  0.96901495  0.62701142  1
  H  H193  1  0.04155814  0.87048616  0.74216784  1
  C  C194  1  0.27201007  0.75160375  0.72733833  1
  C  C195  1  0.01399503  0.83039875  0.50717099  1
  C  C196  1  0.30123955  0.83240245  0.75092207  1
  H  H197  1  0.45422489  0.87995834  0.95897392  1
  N  N198  1  0.04956256  0.78115737  0.83448374  1
  C  C199  1  0.31788105  0.82656364  0.80480658  1
  C  C200  1  0.33854705  0.98880822  0.75447548  1
  H  H201  1  0.47071234  0.75641973  0.75701399  1
  C  C202  1  0.33550367  0.90353920  0.83257063  1
  C  C203  1  0.13957278  0.91954100  0.90256313  1
  H  H204  1  0.49859434  0.77380888  0.88982535  1
  C  C205  1  0.07416874  0.97914445  0.87575474  1
  O  O206  1  0.18435872  0.86369241  0.92245630  1
  H  H207  1  0.33509599  0.90171847  0.87478867  1
  C  C208  1  0.34461092  0.98333371  0.80695741  1
  C  C209  1  0.79558946  0.10487731  0.07751370  1
  H  H210  1  0.69894926  0.12399273  0.14050488  1
  C  C211  1  0.73961687  0.07473391  0.11861521  1
  O  O212  1  0.58319971  0.12370830  0.04875170  1
  C  C213  1  0.78783166  0.20443302  0.07195110  1
  N  N214  1  0.89604072  0.18427697  0.20180232  1
  C  C215  1  0.86751543  0.10132729  0.21604267  1
  C  C216  1  0.85435626  0.03997566  0.05075648  1
  H  H217  1  0.92632868  0.05302748  0.20817837  1
  C  C218  1  0.69896016  0.14574303  0.23792141  1
  C  C219  1  0.77364700  0.08111304  0.23700028  1
  C  C220  1  0.90667328  0.04429908  0.00401648  1
  H  H221  1  0.54194582  0.08382946  0.14925711  1
  C  C222  1  0.72928664  0.23554509  0.22420405  1
  C  C223  1  0.82855273  0.24517088  0.20746013  1
  O  O224  1  0.99980313  0.03575954  0.13231204  1
  O  O225  1  0.72304409  0.24622537  0.09637012  1
  C  C226  1  0.50971956  0.07712681  0.04718825  1
  H  H227  1  0.76154148  0.00945273  0.24851676  1
  O  O228  1  0.84155999  0.24473143  0.04227479  1
  O  O229  1  0.51851070  0.24983873  0.21821831  1
  C  C230  1  0.53015116  0.19564636  0.25272078  1
  N  N231  1  0.59972082  0.12936501  0.25249505  1
  C  C232  1  0.99313692  0.16939774  0.30399001  1
  C  C233  1  0.50333073  0.02895821  0.29845171  1
  C  C234  1  0.84402765  0.23434647  0.36839549  1
  C  C235  1  0.57309644  0.03729943  0.25414875  1
  H  H236  1  0.56932279  0.09346511  0.41323860  1
  C  C237  1  0.61992557  0.03657256  0.41747648  1
  C  C238  1  0.78963878  0.01624674  0.42000193  1
  N  N239  1  0.71136076  0.06845148  0.41149172  1
  H  H240  1  0.85835349  0.05678058  0.41559489  1
  H  H241  1  0.92427988  0.19154653  0.28737104  1
  C  C242  1  0.95974234  0.23514952  0.43890781  1
  O  O243  1  0.81237575  0.20673439  0.32977196  1
  N  N244  1  0.93817916  0.21920698  0.38935836  1
  H  H245  1  0.75819546  0.09656734  0.49594871  1
  H  H246  1  0.94565211  0.10137500  0.49810982  1
  C  C247  1  0.88807317  0.05588165  0.71734055  1
  C  C248  1  0.93937449  0.08605348  0.67416842  1
  C  C249  1  0.80076107  0.03789911  0.61961717  1
  C  C250  1  0.90512405  0.06040449  0.62239341  1
  C  C251  1  0.74310022  0.04627656  0.57391692  1
  O  O252  1  0.57971663  0.04247491  0.54264899  1
  C  C253  1  0.90344350  0.08151672  0.53222198  1
  C  C254  1  0.79869840  0.07564493  0.53040119  1
  C  C255  1  0.63361833  0.01884352  0.57501301  1
  C  C256  1  0.74744183  0.01501886  0.66646348  1
  O  O257  1  0.54722338  0.18371419  0.68364585  1
  C  C258  1  0.95985058  0.06588660  0.57633347  1
  C  C259  1  0.79318952  0.01459209  0.71511525  1
  H  H260  1  0.53267603  0.13054831  0.66928463  1
  Zn  Zn261  1  0.57176423  0.13224644  0.75330215  1
  C  C262  1  0.80113138  0.01285336  0.83721537  1
  C  C263  1  0.94525317  0.11912512  0.84260932  1
  O  O264  1  0.98715530  0.16952407  0.96513162  1
  O  O265  1  0.76709922  0.16705234  0.81621060  1
  O  O266  1  0.82987027  0.16233693  0.95097247  1
  C  C267  1  0.73541490  0.08680012  0.82316165  1
  O  O268  1  0.64714841  0.06645026  0.81441042  1
  C  C269  1  0.90481319  0.02814179  0.84503897  1
  H  H270  1  0.92192435  0.06396616  0.75683822  1
  C  C271  1  0.90826599  0.13289485  0.97165162  1
  C  C272  1  0.88135592  0.18907911  0.82474941  1
  Zn  Zn273  1  0.84200130  0.37743545  0.19389480  1
  H  H274  1  0.67760615  0.29149924  0.23090449  1
  Zn  Zn275  1  0.54029333  0.39141767  0.20487361  1
  H  H276  1  0.97852233  0.48493843  0.13615919  1
  Zn  Zn277  1  0.57806795  0.26581791  0.06152900  1
  O  O278  1  0.85901646  0.48707483  0.03286729  1
  O  O279  1  0.51429130  0.37838070  0.12596250  1
  C  C280  1  0.79273788  0.48228112  0.00158182  1
  C  C281  1  0.68924705  0.32221266  0.37495716  1
  O  O282  1  0.60252180  0.40807779  0.27787897  1
  C  C283  1  0.73858043  0.38808558  0.47940193  1
  C  C284  1  0.89087386  0.29501003  0.46991460  1
  C  C285  1  0.80037873  0.33019859  0.44622482  1
  H  H286  1  0.66315278  0.29746608  0.33671896  1
  C  C287  1  0.64347262  0.39794411  0.45614918  1
  C  C288  1  0.68599057  0.44392319  0.28515244  1
  H  H289  1  0.54977337  0.38196003  0.39287948  1
  C  C290  1  0.62489200  0.36906733  0.40656595  1
  C  C291  1  0.54625821  0.43593916  0.47900236  1
  O  O292  1  0.76336920  0.39903913  0.27726051  1
  C  C293  1  0.77836835  0.29778253  0.39754898  1
  H  H294  1  0.83385594  0.48869889  0.33220087  1
  C  C295  1  0.86970371  0.38212754  0.54521061  1
  C  C296  1  0.78298589  0.41680649  0.52499052  1
  O  O297  1  0.55818770  0.41717815  0.66599673  1
  O  O298  1  0.53879527  0.44101995  0.52754598  1
  H  H299  1  0.89405317  0.41000339  0.58189828  1
  C  C300  1  0.92004920  0.31811906  0.51775799  1
  H  H301  1  0.98835532  0.28924566  0.53115959  1
  O  O302  1  0.77133735  0.49762711  0.60017568  1
  C  C303  1  0.74080560  0.49285386  0.55689728  1
  C  C304  1  0.51418191  0.48935791  0.67220102  1
  O  O305  1  0.80157297  0.43286162  0.96313509  1
  H  H306  1  0.79124911  0.46144114  0.86974496  1
  O  O307  1  0.56963456  0.26739296  0.78780560  1
  Zn  Zn308  1  0.77671920  0.28892237  0.96974787  1
  C  C309  1  0.60029507  0.42505113  0.78480292  1
  O  O310  1  0.63237455  0.31900518  0.98916958  1
  C  C311  1  0.54338317  0.34239008  0.77606984  1
  C  C312  1  0.54877097  0.46195181  0.96275359  1
  C  C313  1  0.68225921  0.40362025  0.81719630  1
  O  O314  1  0.90235880  0.26388831  0.81737604  1
  O  O315  1  0.55443722  0.32611212  0.91669057  1
  H  H316  1  0.69934734  0.33208001  0.82792616  1
  C  C317  1  0.57929113  0.36638935  0.95331929  1
  C  C318  1  0.73780369  0.47359735  0.83932132  1
  C  C319  1  0.71101053  0.58710950  0.05869224  1
  C  C320  1  0.78589116  0.65578453  0.17585760  1
  C  C321  1  0.84918511  0.68408843  0.13476556  1
  C  C322  1  0.92225588  0.62028362  0.12247487  1
  H  H323  1  0.78751317  0.59213223  0.07616762  1
  C  C324  1  0.79277483  0.57106276  0.19569171  1
  H  H325  1  0.72253716  0.69845780  0.18777662  1
  C  C326  1  0.63780517  0.64705542  0.07641279  1
  H  H327  1  0.65850487  0.68685403  0.11175787  1
  O  O328  1  0.93328442  0.72547312  0.04236317  1
  C  C329  1  0.54649768  0.65523473  0.05229690  1
  C  C330  1  0.69432087  0.53168060  0.01812944  1
  C  C331  1  0.92410391  0.53705331  0.14580705  1
  H  H332  1  0.97849300  0.63213862  0.09279003  1
  C  C333  1  0.52410655  0.59178065  0.01373207  1
  H  H334  1  0.74020767  0.54208222  0.22540465  1
  O  O335  1  0.56893566  0.52984784  0.20546423  1
  N  N336  1  0.85343860  0.51097016  0.17803484  1
  C  C337  1  0.50342876  0.57594371  0.22844919  1
  O  O338  1  0.81572535  0.73891264  0.45200856  1
  C  C339  1  0.79799394  0.60521083  0.37706763  1
  C  C340  1  0.52971604  0.61406322  0.28086929  1
  C  C341  1  0.72311669  0.66868945  0.38607470  1
  C  C342  1  0.55292387  0.71610831  0.37538349  1
  C  C343  1  0.77960036  0.54158663  0.33825237  1
  C  C344  1  0.68842418  0.53341617  0.31390440  1
  C  C345  1  0.61447954  0.60275997  0.31499964  1
  C  C346  1  0.63610822  0.66639505  0.35520766  1
  H  H347  1  0.87106389  0.60841593  0.39805751  1
  C  C348  1  0.74222679  0.73516140  0.42743070  1
  O  O349  1  0.67647511  0.54911874  0.54158560  1
  Zn  Zn350  1  0.53080659  0.56269321  0.56890605  1
  N  N351  1  0.54459914  0.69561626  0.58463675  1
  H  H352  1  0.58864799  0.66577626  0.65458455  1
  C  C353  1  0.52102259  0.54084264  0.71958951  1
  N  N354  1  0.84166518  0.73757183  0.71741681  1
  C  C355  1  0.58095810  0.72092575  0.62909798  1
  H  H356  1  0.50349235  0.73284462  0.51204584  1
  C  C357  1  0.50063552  0.68820004  0.75809225  1
  C  C358  1  0.61662468  0.73634747  0.82837104  1
  C  C359  1  0.64316124  0.74146031  0.91678321  1
  H  H360  1  0.79146776  0.63848443  0.75354104  1
  C  C361  1  0.85502503  0.68065285  0.75560428  1
  N  N362  1  0.66951470  0.69812675  0.86837104  1
  O  O363  1  0.82368449  0.63564360  0.88360261  1
  C  C364  1  0.57305652  0.66934257  0.79279818  1
  O  O365  1  0.97863296  0.72994543  0.91178282  1
  C  C366  1  0.61779599  0.58071505  0.79868371  1
  C  C367  1  0.93313568  0.67989431  0.79054217  1
  C  C368  1  0.73861747  0.63351262  0.86738656  1
  C  C369  1  0.69486269  0.55890422  0.83522388  1
  H  H370  1  0.90883835  0.70287000  0.90028295  1
  C  C371  1  0.57729077  0.51255304  0.76566254  1
  H  H372  1  0.77997335  0.72611962  0.95597972  1
  H  H373  1  0.93810813  0.62085892  0.81766175  1
  C  C374  1  0.59720746  0.52338907  0.99729699  1
  C  C375  1  0.79141535  0.83513665  0.13568053  1
  C  C376  1  0.89456380  0.87554648  0.04478731  1
  C  C377  1  0.78779506  0.92630336  0.11283849  1
  O  O378  1  0.74100294  0.83046801  0.17245969  1
  C  C379  1  0.85046828  0.95069012  0.07190923  1
  H  H380  1  0.69386431  0.96977664  0.17427835  1
  C  C381  1  0.88582603  0.78215838  0.06316845  1
  H  H382  1  0.70703650  0.82613473  0.03499218  1
  O  O383  1  0.59815506  0.97880587  0.22782300  1
  C  C384  1  0.73420767  0.98991312  0.13865502  1
  H  H385  1  0.97993528  0.89858064  0.16164224  1
  N  N386  1  0.83770245  0.76481483  0.10906270  1
  Zn  Zn387  1  0.54399594  0.94349923  0.05951874  1
  C  C388  1  0.99319067  0.90041540  0.20136510  1
  H  H389  1  0.86096685  0.81073386  0.22258423  1
  C  C390  1  0.93136965  0.85127723  0.23267370  1
  C  C391  1  0.56292155  0.77059686  0.42206356  1
  N  N392  1  0.95057066  0.84044610  0.28119408  1
  C  C393  1  0.77711968  0.92680129  0.42894474  1
  N  N394  1  0.66308766  0.79569836  0.42792724  1
  H  H395  1  0.50891563  0.88801358  0.30077046  1
  C  C396  1  0.68120218  0.88687767  0.42986441  1
  H  H397  1  0.51854949  0.92781227  0.42937447  1
  H  H398  1  0.84411021  0.88387372  0.43033129  1
  C  C399  1  0.59843071  0.94727421  0.42583644  1
  C  C400  1  0.58824005  0.87465621  0.60654311  1
  H  H401  1  0.53370526  0.89844062  0.52834795  1
  C  C402  1  0.55170272  0.84617705  0.55812992  1
  C  C403  1  0.60217047  0.80862976  0.64386244  1
  H  H404  1  0.63110660  0.82452974  0.68105426  1
  H  H405  1  0.96149113  0.80865882  0.53461713  1
  C  C406  1  0.53434487  0.75761083  0.54905008  1
  N  N407  1  0.61333645  0.96383626  0.61578075  1
  C  C408  1  0.91588997  0.79437077  0.71284899  1
  C  C409  1  0.64115933  0.98958556  0.66537485  1
  O  O410  1  0.59308295  0.99516861  0.70330785  1
  H  H411  1  0.89791572  0.83156201  0.67758158  1
  C  C412  1  0.99219627  0.81084523  0.74705899  1
  C  C413  1  0.70811041  0.76008428  0.95723468  1
  C  C414  1  0.99655781  0.75576131  0.79111518  1
  C  C415  1  0.76445540  0.92353100  0.83849528  1
  O  O416  1  0.60856830  0.81409790  0.81745384  1
  C  C417  1  0.99169485  0.78833670  0.87323034  1
  C  C418  1  0.95090323  0.97107460  0.98006886  1
  C  C419  1  0.54891174  0.78140665  0.92177751  1
  H  H420  1  0.79961661  0.78518974  0.84770478  1
  C  C421  1  0.92835231  0.87062930  0.85843531  1
  H  H422  1  0.96990915  0.83092087  0.97340716  1
  C  C423  1  0.82962364  0.85441280  0.84596647  1
  H  H424  1  0.68332132  0.91353112  0.83356737  1
  C  C425  1  0.97040982  0.95636208  0.85842101  1
  C  C426  1  0.52589619  0.84427551  0.95931784  1
  C  C427  1  0.67249126  0.81489892  0.99706537  1
  H  H428  1  0.97976638  0.97932150  0.94127237  1
  H  H429  1  0.75607912  0.98590989  0.75119877  1
  C  C430  1  0.94572664  0.88429787  0.99931373  1
  N  N431  1  0.58615456  0.85699481  0.99692469  1
