# generated using pymatgen
data_Zn2H6C12O7
_symmetry_space_group_name_H-M   'P 1'
_cell_length_a   13.91481862
_cell_length_b   8.05356102
_cell_length_c   26.35375354
_cell_angle_alpha   90.00000000
_cell_angle_beta   90.00000000
_cell_angle_gamma   90.00000000
_symmetry_Int_Tables_number   1
_chemical_formula_structural   Zn2H6C12O7
_chemical_formula_sum   'Zn16 H48 C96 O56'
_cell_volume   2953.30284259
_cell_formula_units_Z   8
loop_
 _symmetry_equiv_pos_site_id
 _symmetry_equiv_pos_as_xyz
  1  'x, y, z'
loop_
 _atom_site_type_symbol
 _atom_site_label
 _atom_site_symmetry_multiplicity
 _atom_site_fract_x
 _atom_site_fract_y
 _atom_site_fract_z
 _atom_site_occupancy
  O  O0  1  0.32133016  0.48911040  0.09865300  1
  O  O1  1  0.16004774  0.11038070  0.14317124  1
  O  O2  1  0.36934422  0.12677955  0.17818331  1
  Zn  Zn3  1  0.46264154  0.07361048  0.06967224  1
  Zn  Zn4  1  0.26116639  0.30806200  0.15138796  1
  O  O5  1  0.38590246  0.30860833  0.04455826  1
  C  C6  1  0.39451726  0.43327747  0.07030209  1
  O  O7  1  0.22368870  0.49907986  0.19986070  1
  C  C8  1  0.45515059  0.17106772  0.17929458  1
  H  H9  1  0.21878906  0.19529736  0.23277385  1
  H  H10  1  0.00995575  0.17414067  0.20008593  1
  H  H11  1  0.28066044  0.02894216  0.05735837  1
  C  C12  1  0.18400979  0.08766541  0.24892630  1
  O  O13  1  0.12734598  0.48040099  0.00082732  1
  Zn  Zn14  1  0.03280169  0.31278529  0.43037680  1
  H  H15  1  0.19667154  0.19851549  0.32356269  1
  C  C16  1  0.16703027  0.09322940  0.30073505  1
  H  H17  1  0.05014217  0.41915806  0.26676994  1
  O  O18  1  0.12817410  0.10815877  0.40265227  1
  C  C19  1  0.49361399  0.34321141  0.30975261  1
  C  C20  1  0.45309999  0.24751638  0.27150507  1
  H  H21  1  0.38945429  0.16999059  0.27927340  1
  H  H22  1  0.45687978  0.33742350  0.34890256  1
  O  O23  1  0.10007675  0.47182080  0.49548726  1
  O  O24  1  0.18037442  0.25987588  0.53312380  1
  C  C25  1  0.41831830  0.24456401  0.68139503  1
  H  H26  1  0.36436834  0.32727164  0.53935449  1
  C  C27  1  0.46306331  0.23631422  0.63073280  1
  Zn  Zn28  1  0.04750028  0.09220648  0.53144474  1
  O  O29  1  0.41125789  0.38476640  0.70375400  1
  O  O30  1  0.39608623  0.11543549  0.70452433  1
  C  C31  1  0.17675930  0.39260193  0.51027584  1
  C  C32  1  0.47724424  0.09487538  0.60159118  1
  C  C33  1  0.35096148  0.44747596  0.52014780  1
  C  C34  1  0.26064914  0.49822139  0.50194576  1
  O  O35  1  0.44939457  0.31127714  0.84807664  1
  O  O36  1  0.37380451  0.28100973  0.92031948  1
  C  C37  1  0.42825770  0.35827335  0.89371320  1
  C  C38  1  0.10376679  0.17385022  0.82318921  1
  H  H39  1  0.17978226  0.43944830  0.90782629  1
  Zn  Zn40  1  0.47216956  0.45298119  0.77713891  1
  O  O41  1  0.11412822  0.04183025  0.84006245  1
  O  O42  1  0.09054648  0.30208694  0.80443674  1
  C  C43  1  0.40515102  0.65703013  0.22421441  1
  H  H44  1  0.06740811  0.72140843  0.22146658  1
  O  O45  1  0.14632490  0.84314447  0.14059424  1
  O  O46  1  0.16862698  0.71081176  0.03551317  1
  O  O47  1  0.42856448  0.75028419  0.12323694  1
  O  O48  1  0.33115517  0.96370426  0.04759404  1
  Zn  Zn49  1  0.27938337  0.75485783  0.09033413  1
  C  C50  1  0.15191549  0.95423743  0.22227601  1
  C  C51  1  0.15891581  0.96969080  0.16510520  1
  H  H52  1  0.39382692  0.60423784  0.18585410  1
  C  C53  1  0.49691619  0.67705575  0.10121248  1
  C  C54  1  0.48915403  0.73516421  0.23512490  1
  H  H55  1  0.43254386  0.79961405  0.00791410  1
  C  C56  1  0.48860155  0.52212254  0.07274982  1
  C  C57  1  0.24140071  0.53180795  0.24822284  1
  C  C58  1  0.09471307  0.82469479  0.24315901  1
  C  C59  1  0.33370265  0.70757748  0.30701507  1
  C  C60  1  0.09807626  0.98172927  0.37997959  1
  H  H61  1  0.18434167  0.69482501  0.45747141  1
  H  H62  1  0.04692540  0.72263002  0.31498086  1
  C  C63  1  0.32976274  0.73989830  0.45651986  1
  C  C64  1  0.11436415  0.96773656  0.32420144  1
  H  H65  1  0.27656616  0.70533905  0.33523320  1
  H  H66  1  0.32557170  0.85583199  0.43627481  1
  C  C67  1  0.41745347  0.79625036  0.32106491  1
  C  C68  1  0.32932406  0.63078538  0.25992745  1
  H  H69  1  0.42873520  0.85293499  0.35822213  1
  C  C70  1  0.08350038  0.82744093  0.29469172  1
  C  C71  1  0.42161633  0.68411195  0.47480100  1
  O  O72  1  0.05174794  0.86603498  0.40203546  1
  C  C73  1  0.25432137  0.64256664  0.46998331  1
  C  C74  1  0.49092317  0.81600157  0.28454677  1
  O  O75  1  0.18144926  0.50200818  0.28033364  1
  O  O76  1  0.11209625  0.78885820  0.66940090  1
  H  H77  1  0.13270483  0.86506898  0.57089960  1
  O  O78  1  0.10672129  0.85420512  0.53609431  1
  Zn  Zn79  1  0.04228688  0.63797003  0.55412287  1
  C  C80  1  0.02865458  0.77863055  0.66307755  1
  H  H81  1  0.48988441  0.50317449  0.63408577  1
  H  H82  1  0.45209736  0.97015324  0.61417845  1
  C  C83  1  0.42833482  0.54005304  0.50544009  1
  C  C84  1  0.31603057  0.74279320  0.85912845  1
  C  C85  1  0.22046690  0.65927882  0.94856607  1
  O  O86  1  0.38491472  0.69098772  0.77656380  1
  C  C87  1  0.37257413  0.79140713  0.81214084  1
  H  H88  1  0.27102974  0.89250374  0.98232366  1
  O  O89  1  0.40224882  0.93524865  0.80979646  1
  C  C90  1  0.25652227  0.60151425  0.85793312  1
  C  C91  1  0.17361251  0.60862333  0.99906838  1
  C  C92  1  0.27267848  0.80805623  0.94786700  1
  C  C93  1  0.31980572  0.84850039  0.90210684  1
  H  H94  1  0.23846235  0.52077320  0.82518903  1
  C  C95  1  0.47939626  0.51795276  0.91289985  1
  C  C96  1  0.21564075  0.56165185  0.90511295  1
  C  C97  1  0.44502523  0.58386571  0.95965654  1
  H  H98  1  0.05301843  0.86130365  0.76083838  1
  H  H99  1  0.36844821  0.95275231  0.89580503  1
  C  C100  1  0.47068039  0.73875882  0.97668986  1
  H  H101  1  0.38552766  0.52532568  0.97947204  1
  H  H102  1  0.53936150  0.34733880  0.01556043  1
  C  C103  1  0.87360384  0.10670658  0.23672485  1
  O  O104  1  0.56445918  0.03139181  0.01568822  1
  C  C105  1  0.55945569  0.45025698  0.04332708  1
  C  C106  1  0.58429263  0.33985020  0.21718936  1
  H  H107  1  0.61972820  0.33906074  0.17789741  1
  C  C108  1  0.50026663  0.25885054  0.22410345  1
  C  C109  1  0.96409417  0.19400714  0.23609056  1
  H  H110  1  0.71352280  0.44315008  0.01669512  1
  O  O111  1  0.50783057  0.17929022  0.14026393  1
  C  C112  1  0.65664565  0.49670358  0.04434683  1
  H  H113  1  0.72341245  0.17148426  0.25621864  1
  O  O114  1  0.96422014  0.13695012  0.47155032  1
  C  C115  1  0.79886921  0.17715898  0.26910038  1
  Zn  Zn116  1  0.92281366  0.12203438  0.31191908  1
  O  O117  1  0.66782068  0.07997916  0.48425643  1
  H  H118  1  0.76529226  0.39909949  0.31960033  1
  C  C119  1  0.99493360  0.32454708  0.27779283  1
  C  C120  1  0.92655241  0.37940658  0.31649207  1
  C  C121  1  0.82765144  0.31702368  0.30816523  1
  C  C122  1  0.57950674  0.43055877  0.30186128  1
  O  O123  1  0.71029721  0.33855067  0.48823310  1
  O  O124  1  0.95985752  0.49810723  0.39063091  1
  O  O125  1  0.58305215  0.00167336  0.33639097  1
  C  C126  1  0.61683663  0.49607087  0.35017515  1
  O  O127  1  0.57800751  0.46821864  0.39176766  1
  Zn  Zn128  1  0.86691680  0.28056381  0.49627063  1
  C  C129  1  0.63528207  0.43789382  0.25332017  1
  C  C130  1  0.53288924  0.08702244  0.55787118  1
  C  C131  1  0.73628559  0.17767553  0.64491301  1
  C  C132  1  0.83768910  0.18379401  0.64901451  1
  C  C133  1  0.90346097  0.15254643  0.60272191  1
  O  O134  1  0.86185366  0.11263015  0.56298339  1
  C  C135  1  0.57269277  0.38147007  0.57293041  1
  H  H136  1  0.96173728  0.24373091  0.69517453  1
  H  H137  1  0.69390440  0.15496153  0.61087131  1
  C  C138  1  0.68099833  0.20249114  0.68717718  1
  H  H139  1  0.60263301  0.20400807  0.68227140  1
  C  C140  1  0.88072783  0.23114279  0.69496976  1
  C  C141  1  0.72745192  0.23462973  0.73441853  1
  H  H142  1  0.82871528  0.42750787  0.61420865  1
  C  C143  1  0.58432686  0.23188697  0.54551882  1
  C  C144  1  0.82725240  0.25672865  0.73892971  1
  H  H145  1  0.61700691  0.48708016  0.56594206  1
  O  O146  1  0.98967490  0.15194723  0.60551561  1
  C  C147  1  0.50755097  0.38715296  0.61199431  1
  H  H148  1  0.72001530  0.45962307  0.68760659  1
  C  C149  1  0.65494926  0.21517181  0.50428735  1
  H  H150  1  0.50023464  0.48209346  0.50963003  1
  H  H151  1  0.85991289  0.28500451  0.77686379  1
  Zn  Zn152  1  0.72329420  0.18518122  0.89563185  1
  O  O153  1  0.70219250  0.29561847  0.82064572  1
  C  C154  1  0.66604680  0.25385588  0.77865324  1
  O  O155  1  0.57288132  0.24094240  0.77309930  1
  O  O156  1  0.79218235  0.36062649  0.94838976  1
  O  O157  1  0.59808970  0.10150039  0.93813456  1
  O  O158  1  0.84612852  0.23946158  0.95798555  1
  Zn  Zn159  1  0.50661412  0.00591928  0.75451337  1
  O  O160  1  0.85805163  0.81102756  0.22840016  1
  C  C161  1  0.85770028  0.94853538  0.20644674  1
  Zn  Zn162  1  0.73190470  0.83113423  0.11844913  1
  H  H163  1  0.54895573  0.74253537  0.20732024  1
  C  C164  1  0.59967796  0.71462422  0.10051711  1
  C  C165  1  0.67473413  0.63363676  0.07568969  1
  O  O166  1  0.83810136  0.96461514  0.16112305  1
  O  O167  1  0.71437640  0.50373278  0.24505082  1
  Zn  Zn168  1  0.76389081  0.71712570  0.28700191  1
  O  O169  1  0.69329670  0.58669942  0.35218666  1
  O  O170  1  0.58777392  0.73466884  0.48005728  1
  Zn  Zn171  1  0.91599070  0.92167539  0.44506784  1
  C  C172  1  0.57741826  0.91387206  0.29839364  1
  O  O173  1  0.64900915  0.89335313  0.26890718  1
  Zn  Zn174  1  0.67851199  0.56110374  0.44647009  1
  O  O175  1  0.87896060  0.66178159  0.33850107  1
  O  O176  1  0.82187433  0.73426582  0.48622418  1
  C  C177  1  0.50560061  0.78640030  0.46256672  1
  H  H178  1  0.81154643  0.84767065  0.38745669  1
  C  C179  1  0.92493318  0.53297573  0.34748775  1
  O  O180  1  0.51042187  0.91427481  0.43537659  1
  Zn  Zn181  1  0.65281527  0.99599270  0.40698070  1
  O  O182  1  0.79731559  0.96575187  0.39104842  1
  C  C183  1  0.85101055  0.82472992  0.68513545  1
  C  C184  1  0.71829880  0.78314429  0.57673763  1
  H  H185  1  0.82615853  0.80050699  0.64580958  1
  C  C186  1  0.78237242  0.86224655  0.72070926  1
  C  C187  1  0.77608496  0.63961505  0.57395495  1
  C  C188  1  0.83590367  0.64410876  0.52483393  1
  C  C189  1  0.71529431  0.53845318  0.65460002  1
  C  C190  1  0.65995107  0.80244528  0.61837550  1
  C  C191  1  0.77759139  0.52685537  0.61354384  1
  C  C192  1  0.65307331  0.67590061  0.65524630  1
  H  H193  1  0.61811384  0.91635499  0.62003684  1
  C  C194  1  0.58380028  0.69264240  0.69734961  1
  H  H195  1  0.73280457  0.87665455  0.54849669  1
  H  H196  1  0.70499649  0.85704255  0.71263423  1
  C  C197  1  0.94717854  0.82539613  0.70136166  1
  O  O198  1  0.58614218  0.59799320  0.73583213  1
  O  O199  1  0.89889405  0.53305994  0.52398210  1
  O  O200  1  0.53377709  0.82127228  0.69808839  1
  O  O201  1  0.98913209  0.71135261  0.62218376  1
  H  H202  1  0.55430534  0.96792683  0.54085012  1
  C  C203  1  0.97748742  0.86869654  0.74954973  1
  C  C204  1  0.57335649  0.99865707  0.97012322  1
  C  C205  1  0.72953641  0.91192236  0.80950586  1
  O  O206  1  0.64379209  0.89113967  0.79853366  1
  O  O207  1  0.75540881  0.96570756  0.85242923  1
  C  C208  1  0.54179447  0.82840661  0.94881798  1
  C  C209  1  0.80899488  0.88877132  0.77198027  1
  C  C210  1  0.90466965  0.90441213  0.78418649  1
  H  H211  1  0.63174281  0.83089396  0.88464267  1
  C  C212  1  0.57734420  0.75738008  0.90518259  1
  H  H213  1  0.92449790  0.92104712  0.82478005  1
  H  H214  1  0.57726156  0.55078243  0.84943809  1
  C  C215  1  0.54890233  0.60405780  0.88596587  1
