# generated using pymatgen
data_CuH9(C10O3)2
_symmetry_space_group_name_H-M   'P 1'
_cell_length_a   13.12707858
_cell_length_b   20.63466562
_cell_length_c   16.97514863
_cell_angle_alpha   90.00000000
_cell_angle_beta   90.00000000
_cell_angle_gamma   90.00000000
_symmetry_Int_Tables_number   1
_chemical_formula_structural   CuH9(C10O3)2
_chemical_formula_sum   'Cu8 H72 C160 O48'
_cell_volume   4598.10734639
_cell_formula_units_Z   8
loop_
 _symmetry_equiv_pos_site_id
 _symmetry_equiv_pos_as_xyz
  1  'x, y, z'
loop_
 _atom_site_type_symbol
 _atom_site_label
 _atom_site_symmetry_multiplicity
 _atom_site_fract_x
 _atom_site_fract_y
 _atom_site_fract_z
 _atom_site_occupancy
  Cu  Cu0  1  0.23627718  0.05306653  0.39286884  1
  C  C1  1  0.40078933  0.10594437  0.09539394  1
  C  C2  1  0.45308289  0.14007980  0.15026996  1
  C  C3  1  0.32669949  0.05536080  0.12227732  1
  C  C4  1  0.48306999  0.18417900  0.27458914  1
  C  C5  1  0.33525445  0.03441835  0.20850683  1
  C  C6  1  0.44650244  0.20696936  0.35167879  1
  H  H7  1  0.39661982  0.17556481  0.38496653  1
  C  C8  1  0.37464770  0.07972376  0.26690140  1
  O  O9  1  0.17888250  0.01493861  0.29953590  1
  O  O10  1  0.21488723  0.13070731  0.44384169  1
  C  C11  1  0.43651995  0.13091794  0.23260836  1
  O  O12  1  0.35584176  0.06927552  0.33842269  1
  O  O13  1  0.05913334  0.00723040  0.45967100  1
  O  O14  1  0.26313098  0.02878269  0.08487069  1
  H  H15  1  0.49822643  0.18045424  0.12692891  1
  H  H16  1  0.19594949  0.24492173  0.39677663  1
  C  C17  1  0.40595780  0.12337151  0.01184240  1
  H  H18  1  0.34671560  0.21546156  0.62440508  1
  C  C19  1  0.31980710  0.11357979  0.88519364  1
  O  O20  1  0.16121704  0.15252942  0.75257830  1
  O  O21  1  0.32370218  0.09035396  0.72947291  1
  H  H22  1  0.01945182  0.00190064  0.79199889  1
  C  C23  1  0.41091526  0.13086070  0.84633792  1
  Cu  Cu24  1  0.22943662  0.13474116  0.66309820  1
  O  O25  1  0.47211545  0.13718562  0.72091868  1
  C  C26  1  0.31516874  0.10990552  0.96590642  1
  H  H27  1  0.02205659  0.14802987  0.86905698  1
  C  C28  1  0.49986700  0.14645372  0.89087950  1
  C  C29  1  0.40309081  0.11851855  0.76026626  1
  C  C30  1  0.01709646  0.03355174  0.73775723  1
  C  C31  1  0.25824215  0.15404503  0.50439697  1
  O  O32  1  0.29057769  0.11834849  0.56056121  1
  H  H33  1  0.24989933  0.10982725  0.84273006  1
  C  C34  1  0.15682661  0.21548751  0.77216597  1
  H  H35  1  0.24488292  0.09177316  0.99570927  1
  C  C36  1  0.03321183  0.19845841  0.88483640  1
  C  C37  1  0.31300465  0.24801742  0.58012385  1
  C  C38  1  0.26624131  0.22410758  0.51254066  1
  C  C39  1  0.01135960  0.09138663  0.58985443  1
  H  H40  1  0.01329200  0.11593804  0.52808907  1
  C  C41  1  0.06276256  0.03412229  0.60113387  1
  H  H42  1  0.48301457  0.02795177  0.83904455  1
  C  C43  1  0.09506752  0.24111679  0.83837132  1
  C  C44  1  0.07028692  0.00578304  0.67740306  1
  H  H45  1  0.33508707  0.45388199  0.35594678  1
  C  C46  1  0.18543831  0.46962243  0.31484389  1
  H  H47  1  0.16452440  0.35959522  0.42887035  1
  C  C48  1  0.46312130  0.26930457  0.37940155  1
  H  H49  1  0.42259010  0.27996223  0.43325902  1
  H  H50  1  0.18602317  0.42366241  0.28077014  1
  O  O51  1  0.48738584  0.39958975  0.41287170  1
  C  C52  1  0.27012871  0.48733174  0.35861201  1
  C  C53  1  0.20824201  0.32757746  0.47012401  1
  H  H54  1  0.09781003  0.42272609  0.47413279  1
  C  C55  1  0.22796282  0.26521344  0.45090357  1
  O  O56  1  0.02826175  0.39679018  0.23050711  1
  C  C57  1  0.02342921  0.44452920  0.77616711  1
  O  O58  1  0.28776427  0.42931918  0.70178393  1
  C  C59  1  0.30725506  0.31409708  0.59571514  1
  C  C60  1  0.20179367  0.41302838  0.57490342  1
  C  C61  1  0.11925152  0.44186314  0.53238089  1
  C  C62  1  0.24579675  0.35406714  0.54379596  1
  C  C63  1  0.22409668  0.44211766  0.65169636  1
  H  H64  1  0.33597058  0.33615185  0.65150087  1
  Cu  Cu65  1  0.37727655  0.48067881  0.75087737  1
  C  C66  1  0.14298264  0.48334199  0.68853100  1
  H  H67  1  0.04191150  0.38348369  0.93424003  1
  C  C68  1  0.12146746  0.48283556  0.75743656  1
  Cu  Cu69  1  0.47869391  0.45838325  0.50530224  1
  C  C70  1  0.09754347  0.30787888  0.85458157  1
  O  O71  1  0.20384421  0.25648217  0.73757414  1
  H  H72  1  0.13701863  0.34041809  0.81113745  1
  C  C73  1  0.06696722  0.49468636  0.55942994  1
  O  O74  1  0.49233196  0.44867749  0.68680180  1
  C  C75  1  0.04861944  0.33048762  0.92138894  1
  O  O76  1  0.00286798  0.39746600  0.73825329  1
  H  H77  1  0.18924133  0.62918115  0.45647800  1
  H  H78  1  0.36082588  0.63002125  0.21263172  1
  C  C79  1  0.18530668  0.58430664  0.42045548  1
  C  C80  1  0.39744273  0.67843020  0.19719962  1
  C  C81  1  0.36711326  0.56444178  0.44776778  1
  H  H82  1  0.04256988  0.68671548  0.06609519  1
  H  H83  1  0.02990156  0.57055884  0.03013843  1
  C  C84  1  0.10151626  0.57081408  0.37316935  1
  C  C85  1  0.01747055  0.50918405  0.26543729  1
  O  O86  1  0.44655221  0.52663485  0.43695645  1
  C  C87  1  0.27180238  0.54295693  0.40847834  1
  H  H88  1  0.03650315  0.60336194  0.38632500  1
  C  C89  1  0.33865203  0.73274096  0.18544351  1
  C  C90  1  0.19078765  0.69690431  0.00650969  1
  H  H91  1  0.25165266  0.73400760  0.17890502  1
  C  C92  1  0.10253239  0.51623460  0.31828241  1
  C  C93  1  0.10505813  0.66228262  0.03215328  1
  O  O94  1  0.37523240  0.61221451  0.48696590  1
  C  C95  1  0.09213656  0.60138863  0.00241332  1
  C  C96  1  0.16191700  0.57784939  0.94051203  1
  C  C97  1  0.26333390  0.60576978  0.93939970  1
  C  C98  1  0.12019044  0.53151872  0.88715633  1
  O  O99  1  0.49996780  0.52541057  0.93327174  1
  H  H100  1  0.32882086  0.58208392  0.90084372  1
  C  C101  1  0.08466968  0.52938750  0.63647000  1
  C  C102  1  0.01340831  0.52000756  0.89185837  1
  O  O103  1  0.04877372  0.57760287  0.66222966  1
  O  O104  1  0.27460924  0.52149144  0.81297580  1
  C  C105  1  0.18488359  0.50639518  0.82279860  1
  O  O106  1  0.48856198  0.53232274  0.80183693  1
  H  H107  1  0.34992162  0.69343536  0.97382538  1
  C  C108  1  0.27744576  0.66665498  0.97243017  1
  C  C109  1  0.38124852  0.92436378  0.19572746  1
  C  C110  1  0.09802565  0.87219816  0.30977079  1
  C  C111  1  0.24026921  0.84709820  0.22943149  1
  O  O112  1  0.14173461  0.79950944  0.06380641  1
  C  C113  1  0.31142479  0.97811836  0.22127336  1
  C  C114  1  0.21823324  0.76629916  0.03231544  1
  C  C115  1  0.39030174  0.79462703  0.18058141  1
  H  H116  1  0.18126438  0.84451826  0.40907333  1
  H  H117  1  0.20641642  0.79853543  0.23771158  1
  O  O118  1  0.46378848  0.94103167  0.17572544  1
  C  C119  1  0.19202633  0.89864815  0.27029418  1
  C  C120  1  0.33823125  0.85705312  0.19951295  1
  C  C121  1  0.10714512  0.83776632  0.38283652  1
  O  O122  1  0.30050440  0.79049536  0.02088917  1
  C  C123  1  0.21994157  0.96591898  0.27094672  1
  H  H124  1  0.44625776  0.92783524  0.06368368  1
  H  H125  1  0.00451037  0.78834957  0.18276696  1
  C  C126  1  0.02171069  0.80795912  0.41929126  1
  H  H127  1  0.02385981  0.78833227  0.47869739  1
  H  H128  1  0.28222934  0.88168552  0.02072915  1
  C  C129  1  0.41463314  0.94143683  0.00347728  1
  O  O130  1  0.16655567  0.91085939  0.80646630  1
  C  C131  1  0.43623908  0.99300685  0.87627978  1
  C  C132  1  0.19372228  0.89699711  0.87121408  1
  C  C133  1  0.28856196  0.92811371  0.90517641  1
  C  C134  1  0.34513265  0.96763899  0.84958821  1
  H  H135  1  0.11904533  0.96283823  0.69088411  1
  O  O136  1  0.16395604  0.95200866  0.53445245  1
  O  O137  1  0.15028020  0.85315605  0.91474294  1
  C  C138  1  0.48013111  0.97897177  0.95278760  1
  H  H139  1  0.31429917  0.97854146  0.78892310  1
  C  C140  1  0.32115979  0.91543564  0.97947591  1
  C  C141  1  0.10398887  0.99741545  0.53025063  1
  Cu  Cu142  1  0.06180041  0.85584623  0.99902480  1
  C  C143  1  0.70138408  0.01713376  0.17099330  1
  H  H144  1  0.78700247  0.23697583  0.41717062  1
  C  C145  1  0.76569090  0.07067328  0.04087636  1
  H  H146  1  0.81098097  0.15225075  0.14063775  1
  O  O147  1  0.90639418  0.06399001  0.39093757  1
  C  C148  1  0.69112691  0.03229781  0.08533648  1
  H  H149  1  0.92171514  0.21755019  0.08455127  1
  C  C150  1  0.81090714  0.17244605  0.20250033  1
  C  C151  1  0.83542860  0.15871780  0.33897746  1
  C  C152  1  0.84425771  0.13282659  0.26156761  1
  C  C153  1  0.80359687  0.24207889  0.21812175  1
  O  O154  1  0.84533771  0.13671444  0.47520758  1
  C  C155  1  0.79944452  0.22105759  0.35781793  1
  H  H156  1  0.59829411  0.21234851  0.18403159  1
  O  O157  1  0.84073113  0.09512444  0.06675506  1
  C  C158  1  0.61892869  0.04143239  0.22213790  1
  H  H159  1  0.54952968  0.06217629  0.19451182  1
  C  C160  1  0.85792225  0.11698523  0.40964754  1
  H  H161  1  0.56602181  0.05178423  0.34183865  1
  C  C162  1  0.62631427  0.03238031  0.30200876  1
  H  H163  1  0.87143744  0.08504115  0.25480939  1
  H  H164  1  0.56760277  0.15503690  0.00818444  1
  C  C165  1  0.55802876  0.22645159  0.23777237  1
  O  O166  1  0.66273140  0.01124278  0.46772934  1
  C  C167  1  0.50016754  0.14247952  0.97199015  1
  O  O168  1  0.69344880  0.19614937  0.94696810  1
  C  C169  1  0.58047101  0.00145540  0.97825637  1
  C  C170  1  0.88375978  0.12092176  0.78302360  1
  H  H171  1  0.92138808  0.16443066  0.64052235  1
  C  C172  1  0.75606235  0.19999823  0.80982398  1
  C  C173  1  0.96147436  0.11961322  0.65197176  1
  C  C174  1  0.73743146  0.07507733  0.95405015  1
  C  C175  1  0.74484231  0.18017681  0.89375277  1
  H  H176  1  0.83426565  0.19647014  0.70306926  1
  C  C177  1  0.77912094  0.10956609  0.90736386  1
  C  C178  1  0.82696521  0.17397188  0.76034194  1
  C  C179  1  0.87312560  0.08783806  0.86137356  1
  C  C180  1  0.95513550  0.08970786  0.72728204  1
  C  C181  1  0.65239799  0.03332776  0.91877970  1
  O  O182  1  0.91607907  0.04228027  0.88522195  1
  H  H183  1  0.67197415  0.19428752  0.66896849  1
  O  O184  1  0.64361110  0.02937382  0.85001022  1
  C  C185  1  0.98054930  0.22083993  0.95058100  1
  C  C186  1  0.65522961  0.24320209  0.69727849  1
  H  H187  1  0.57673846  0.15356308  0.86300272  1
  H  H188  1  0.93190578  0.18379940  0.98423924  1
  C  C189  1  0.83443371  0.28720306  0.15674087  1
  C  C190  1  0.57883131  0.28739425  0.26719927  1
  C  C191  1  0.80634599  0.35546173  0.16572972  1
  O  O192  1  0.74076332  0.38082917  0.20502027  1
  C  C193  1  0.95182126  0.47888160  0.45172278  1
  C  C194  1  0.89741048  0.45213740  0.16614736  1
  C  C195  1  0.94153510  0.31355727  0.04269014  1
  C  C196  1  0.88355857  0.40183619  0.13146672  1
  H  H197  1  0.99027663  0.43367778  0.44921555  1
  H  H198  1  0.76669989  0.31500624  0.30897716  1
  H  H199  1  0.83617370  0.45454112  0.36110958  1
  O  O200  1  0.60021665  0.41515932  0.31920548  1
  C  C201  1  0.94225439  0.38392251  0.05825781  1
  C  C202  1  0.86588005  0.48704480  0.40770336  1
  H  H203  1  0.63982331  0.32078854  0.24464507  1
  C  C204  1  0.78713139  0.26576574  0.29827398  1
  C  C205  1  0.52822800  0.30939397  0.33524896  1
  C  C206  1  0.54180913  0.37767235  0.35886432  1
  C  C207  1  0.89860502  0.26849135  0.09269736  1
  C  C208  1  0.98896919  0.44824149  0.22328826  1
  O  O209  1  0.98381595  0.42743952  0.02457151  1
  H  H210  1  0.66221365  0.49930960  0.98744729  1
  C  C211  1  0.84841869  0.48215402  0.84888281  1
  H  H212  1  0.83256311  0.48125366  0.71766073  1
  C  C213  1  0.59675617  0.28928125  0.65950774  1
  H  H214  1  0.58293520  0.39704549  0.81267202  1
  C  C215  1  0.65970741  0.30815726  0.82245873  1
  C  C216  1  0.96208513  0.47922184  0.83805008  1
  C  C217  1  0.60249674  0.35332983  0.77903246  1
  C  C218  1  0.79193289  0.48583408  0.77841557  1
  C  C219  1  0.57364842  0.34798127  0.69912982  1
  C  C220  1  0.51980081  0.39803386  0.65203916  1
  H  H221  1  0.68037393  0.31796515  0.88613553  1
  H  H222  1  0.85500098  0.47424059  0.97878145  1
  H  H223  1  0.56665141  0.27970491  0.59849754  1
  C  C224  1  0.70121845  0.49174740  0.93302060  1
  C  C225  1  0.80505078  0.48335858  0.92774474  1
  C  C226  1  0.99433560  0.28835987  0.97271448  1
  O  O227  1  0.50403511  0.38954326  0.58039634  1
  C  C228  1  0.68556945  0.25154201  0.77994787  1
  O  O229  1  0.66034205  0.63519183  0.22597296  1
  Cu  Cu230  1  0.71648718  0.68603615  0.30111557  1
  H  H231  1  0.75169399  0.73369245  0.03774712  1
  C  C232  1  0.94097604  0.69471401  0.20179339  1
  H  H233  1  0.76139620  0.61549060  0.08562261  1
  O  O234  1  0.69617089  0.52526621  0.33098619  1
  C  C235  1  0.80536543  0.71885343  0.08132589  1
  O  O236  1  0.69462415  0.62284297  0.38098423  1
  C  C237  1  0.82118761  0.54835687  0.42419489  1
  C  C238  1  0.73179078  0.56425383  0.37809848  1
  C  C239  1  0.80625750  0.65503115  0.10917609  1
  C  C240  1  0.56392991  0.62843475  0.22094170  1
  C  C241  1  0.88050354  0.64236141  0.16942150  1
  C  C242  1  0.89234455  0.57338359  0.19040016  1
  O  O243  1  0.85945689  0.73839913  0.47257707  1
  O  O244  1  0.52144168  0.57442548  0.23489498  1
  H  H245  1  0.99290351  0.61142611  0.27934552  1
  C  C246  1  0.55996864  0.74339614  0.18595162  1
  C  C247  1  0.85236266  0.59571636  0.47905335  1
  H  H248  1  0.98552952  0.68658188  0.25415140  1
  C  C249  1  0.96650646  0.56707525  0.24888736  1
  C  C250  1  0.84897816  0.51791365  0.14736836  1
  O  O251  1  0.78614344  0.51957546  0.09645480  1
  C  C252  1  0.50639533  0.68425459  0.20498696  1
  H  H253  1  0.64337935  0.74437144  0.18164957  1
  Cu  Cu254  1  0.56979388  0.50110997  0.29172782  1
  H  H255  1  0.80900371  0.64256549  0.49083759  1
  C  C256  1  0.93568527  0.58446482  0.52635019  1
  C  C257  1  0.53477879  0.52198932  0.86953804  1
  H  H258  1  0.96139893  0.53927119  0.93615094  1
  H  H259  1  0.63493452  0.51175326  0.73697852  1
  H  H260  1  0.96165780  0.62052717  0.57285965  1
  C  C261  1  0.68866574  0.50112383  0.78771324  1
  C  C262  1  0.64376511  0.50112627  0.86223640  1
  C  C263  1  0.98463756  0.52392730  0.51220887  1
  H  H264  1  0.84828519  0.96432544  0.16611424  1
  C  C265  1  0.93430107  0.80480790  0.37603909  1
  C  C266  1  0.88519248  0.83141991  0.06520188  1
  Cu  Cu267  1  0.93234281  0.98771857  0.45266300  1
  O  O268  1  0.82723615  0.84864052  0.01496698  1
  C  C269  1  0.50069702  0.79695618  0.17150263  1
  O  O270  1  0.80345466  0.95870852  0.44731596  1
  C  C271  1  0.92068347  0.83808692  0.30101556  1
  C  C272  1  0.94404541  0.75399311  0.16406896  1
  H  H273  1  0.85413335  0.94991920  0.31224210  1
  H  H274  1  0.84386971  0.83331167  0.27566842  1
  O  O275  1  0.96647207  0.86346782  0.08413179  1
  C  C276  1  0.79084072  0.97316214  0.28546334  1
  C  C277  1  0.72290601  0.98936427  0.42177428  1
  H  H278  1  0.53216126  0.84350135  0.15842617  1
  H  H279  1  0.98086980  0.90519268  0.21846459  1
  C  C280  1  0.71547414  0.99955382  0.33344145  1
  C  C281  1  0.99858600  0.87527300  0.26945910  1
  C  C282  1  0.87744062  0.76541216  0.10194314  1
  H  H283  1  0.56221102  0.97136982  0.10020386  1
  C  C284  1  0.60572638  0.99969504  0.05686982  1
  C  C285  1  0.78665263  0.98611274  0.20425446  1
  O  O286  1  0.76922153  0.75120814  0.36331839  1
  C  C287  1  0.84938429  0.76341511  0.40935675  1
