# generated using pymatgen
data_CuH9C17O4
_symmetry_space_group_name_H-M   'P 1'
_cell_length_a   25.74668752
_cell_length_b   4.26466711
_cell_length_c   22.56690101
_cell_angle_alpha   90.00000000
_cell_angle_beta   90.00000000
_cell_angle_gamma   90.00000000
_symmetry_Int_Tables_number   1
_chemical_formula_structural   CuH9C17O4
_chemical_formula_sum   'Cu8 H72 C136 O32'
_cell_volume   2477.86945921
_cell_formula_units_Z   8
loop_
 _symmetry_equiv_pos_site_id
 _symmetry_equiv_pos_as_xyz
  1  'x, y, z'
loop_
 _atom_site_type_symbol
 _atom_site_label
 _atom_site_symmetry_multiplicity
 _atom_site_fract_x
 _atom_site_fract_y
 _atom_site_fract_z
 _atom_site_occupancy
  C  C0  1  0.02530470  0.10658861  0.20442686  1
  C  C1  1  0.07797979  0.11301752  0.18936461  1
  C  C2  1  0.11350582  0.32209188  0.21334707  1
  O  O3  1  0.13956253  0.24972301  0.02324482  1
  H  H4  1  0.15276361  0.34838285  0.19368000  1
  C  C5  1  0.35117182  0.17614409  0.05417306  1
  C  C6  1  0.40110785  0.15768697  0.07873421  1
  C  C7  1  0.30135325  0.25961222  0.24305158  1
  O  O8  1  0.25534666  0.30203684  0.00472425  1
  C  C9  1  0.26500130  0.44336465  0.05292142  1
  C  C10  1  0.41660561  0.32981870  0.12662000  1
  H  H11  1  0.32921210  0.20365242  0.20814910  1
  H  H12  1  0.45532556  0.30802647  0.14949020  1
  C  C13  1  0.31625082  0.38394360  0.07911853  1
  H  H14  1  0.33771347  0.03479052  0.01489765  1
  H  H15  1  0.01728999  0.18854859  0.35955147  1
  C  C16  1  0.22819730  0.13461051  0.30525144  1
  Cu  Cu17  1  0.12659431  0.32588902  0.46909780  1
  O  O18  1  0.18201439  0.24960919  0.41759523  1
  O  O19  1  0.08536942  0.04698439  0.42080328  1
  C  C20  1  0.46507789  0.00561516  0.25005888  1
  C  C21  1  0.25641634  0.08180685  0.25417754  1
  C  C22  1  0.24738268  0.36867351  0.34387220  1
  H  H23  1  0.35985256  0.00628251  0.34774740  1
  C  C24  1  0.44620970  0.22716897  0.35831202  1
  C  C25  1  0.49526930  0.13520775  0.38446220  1
  C  C26  1  0.43229241  0.05928005  0.30186551  1
  C  C27  1  0.41481815  0.46071878  0.38424007  1
  C  C28  1  0.22312051  0.38539958  0.40296368  1
  C  C29  1  0.00831818  0.29832169  0.25042304  1
  O  O30  1  0.22644080  0.23815781  0.56364547  1
  C  C31  1  0.20037585  0.14739199  0.68003778  1
  C  C32  1  0.17075765  0.35108127  0.64372930  1
  C  C33  1  0.18418800  0.36053141  0.58018157  1
  H  H34  1  0.39099575  0.19289668  0.63047722  1
  C  C35  1  0.18522173  0.10599281  0.73826120  1
  Cu  Cu36  1  0.28239077  0.37370207  0.50854532  1
  C  C37  1  0.01136921  0.38810488  0.61764979  1
  C  C38  1  0.48165506  0.46002966  0.58368354  1
  O  O39  1  0.32707491  0.13231645  0.55677067  1
  H  H40  1  0.33706052  0.30307771  0.70544636  1
  H  H41  1  0.04955033  0.44268823  0.63720397  1
  H  H42  1  0.41645728  0.37244482  0.52593350  1
  C  C43  1  0.45234101  0.09234599  0.74983717  1
  C  C44  1  0.11758301  0.49630503  0.72920823  1
  H  H45  1  0.23529926  0.03484804  0.65883771  1
  C  C46  1  0.41684792  0.00353367  0.61515371  1
  C  C47  1  0.48325960  0.08504384  0.69848907  1
  C  C48  1  0.09113116  0.27591011  0.93602997  1
  C  C49  1  0.05496318  0.05450517  0.95605918  1
  H  H50  1  0.12111383  0.20231503  0.80687720  1
  H  H51  1  0.48258991  0.00889593  0.95353758  1
  C  C52  1  0.00150248  0.17344208  0.86781931  1
  H  H53  1  0.37150916  0.24208483  0.83218523  1
  C  C54  1  0.01045691  0.01026619  0.92238690  1
  C  C55  1  0.14255803  0.26406107  0.76568213  1
  H  H56  1  0.45195800  0.26864047  0.84139108  1
  C  C57  1  0.13641001  0.36371976  0.97032016  1
  C  C58  1  0.47396178  0.25005227  0.79823027  1
  O  O59  1  0.28929959  0.21922474  0.88784690  1
  C  C60  1  0.36373162  0.03680698  0.80226457  1
  C  C61  1  0.03971201  0.39852079  0.84819767  1
  Cu  Cu62  1  0.24486384  0.47491507  0.92961570  1
  C  C63  1  0.08228135  0.45664028  0.88182793  1
  H  H64  1  0.27086405  0.48412420  0.78333043  1
  O  O65  1  0.23326803  0.61759199  0.07884244  1
  O  O66  1  0.06689975  0.78757927  0.11067956  1
  H  H67  1  0.43035029  0.98217698  0.06286619  1
  C  C68  1  0.09825351  0.93816662  0.13625764  1
  H  H69  1  0.29939377  0.72809215  0.14709623  1
  H  H70  1  0.46886411  0.81603923  0.16656134  1
  C  C71  1  0.44395418  0.83117913  0.20352225  1
  C  C72  1  0.39181850  0.70611035  0.20780045  1
  C  C73  1  0.32827822  0.56268215  0.12892091  1
  H  H74  1  0.24563653  0.89185437  0.22248194  1
  O  O75  1  0.14880328  0.92772247  0.12537987  1
  Cu  Cu76  1  0.18499208  0.93880987  0.05402424  1
  C  C77  1  0.37870778  0.53249962  0.15348349  1
  H  H78  1  0.03089961  0.67576323  0.30790804  1
  C  C79  1  0.05554431  0.83841520  0.44260408  1
  C  C80  1  0.00268261  0.80479816  0.42050997  1
  H  H81  1  0.12756502  0.65132903  0.28344063  1
  O  O82  1  0.07176413  0.62297682  0.47663561  1
  C  C83  1  0.43354696  0.64275813  0.43132658  1
  C  C84  1  0.48061511  0.58447531  0.45883307  1
  C  C85  1  0.38125353  0.93608900  0.30793965  1
  H  H86  1  0.19546336  0.99121693  0.31380031  1
  C  C87  1  0.36127227  0.72324446  0.26254218  1
  H  H88  1  0.41209168  0.85491620  0.44735414  1
  H  H89  1  0.29325852  0.77552040  0.35791796  1
  O  O90  1  0.24983545  0.53898121  0.44026158  1
  C  C91  1  0.28709901  0.56695238  0.33036665  1
  C  C92  1  0.31601217  0.52551161  0.27930248  1
  H  H93  1  0.49674090  0.72481755  0.49691028  1
  C  C94  1  0.04451201  0.50191349  0.27660874  1
  C  C95  1  0.09799799  0.50413104  0.26142259  1
  H  H96  1  0.37721612  0.51087908  0.36181027  1
  H  H97  1  0.10532840  0.66822605  0.63964878  1
  C  C98  1  0.06849094  0.66947955  0.74406779  1
  C  C99  1  0.04975895  0.88044231  0.70112516  1
  C  C100  1  0.12927728  0.51789456  0.66733384  1
  H  H101  1  0.01478813  0.78539367  0.55550921  1
  H  H102  1  0.07860486  0.97487121  0.67154287  1
  C  C103  1  0.35008517  0.88418523  0.54296562  1
  C  C104  1  0.46388925  0.92021928  0.64296434  1
  C  C105  1  0.38717388  0.66892146  0.72682781  1
  C  C106  1  0.40196516  0.80142665  0.57087607  1
  C  C107  1  0.34028189  0.52137228  0.73170403  1
  O  O108  1  0.15585272  0.50398471  0.54338464  1
  H  H109  1  0.41531876  0.57541506  0.69688071  1
  C  C110  1  0.43338512  0.54037817  0.55811910  1
  O  O111  1  0.33214341  0.70038645  0.50408529  1
  H  H112  1  0.10902678  0.65499624  0.87198609  1
  C  C113  1  0.03118762  0.58494851  0.79179475  1
  O  O114  1  0.17036359  0.55027466  0.95286571  1
  H  H115  1  0.20659470  0.93099316  0.76393210  1
  O  O116  1  0.24286760  0.78967226  0.87048280  1
  C  C117  1  0.30416901  0.62934561  0.77393603  1
  H  H118  1  0.46738319  0.74642102  0.85165941  1
  C  C119  1  0.31478951  0.88806448  0.80927023  1
  C  C120  1  0.28110986  0.96332135  0.86048012  1
  C  C121  1  0.39983664  0.95037421  0.75876863  1
  H  H122  1  0.05909421  0.91942531  0.99615015  1
  C  C123  1  0.60026812  0.24750921  0.20363377  1
  O  O124  1  0.67751064  0.30098140  0.14612168  1
  O  O125  1  0.74305637  0.44038906  0.05337852  1
  C  C126  1  0.63629958  0.14251653  0.15730883  1
  H  H127  1  0.92298517  0.21915221  0.05688298  1
  C  C128  1  0.55462863  0.07052981  0.20811669  1
  H  H129  1  0.79253084  0.45817530  0.14767237  1
  H  H130  1  0.69605291  0.13369866  0.23655142  1
  C  C131  1  0.89449797  0.06508685  0.07768044  1
  H  H132  1  0.92653904  0.08994728  0.17158664  1
  C  C133  1  0.89756128  0.00072288  0.13842470  1
  C  C134  1  0.51672194  0.16475076  0.24876734  1
  C  C135  1  0.50749764  0.32953023  0.43258272  1
  C  C136  1  0.55588516  0.25636811  0.46527829  1
  C  C137  1  0.53032677  0.42849775  0.28386957  1
  C  C138  1  0.86415030  0.26189926  0.29958981  1
  H  H139  1  0.66589156  0.08480980  0.34601477  1
  H  H140  1  0.89959333  0.32411196  0.43005836  1
  H  H141  1  0.98363763  0.39589238  0.47429996  1
  C  C142  1  0.91813010  0.19077179  0.30436310  1
  O  O143  1  0.58195680  0.03112676  0.44899601  1
  C  C144  1  0.94956909  0.33502617  0.25713943  1
  H  H145  1  0.79460988  0.47471101  0.37547096  1
  C  C146  1  0.98770058  0.00630957  0.37532695  1
  C  C147  1  0.71817771  0.00628452  0.26912067  1
  H  H148  1  0.84371586  0.10373271  0.33045105  1
  C  C149  1  0.53452543  0.20200155  0.69228705  1
  H  H150  1  0.61225066  0.32886002  0.63671320  1
  H  H151  1  0.55555198  0.17056058  0.64818896  1
  C  C152  1  0.55678101  0.35620072  0.74086867  1
  C  C153  1  0.90997361  0.28016221  0.57796438  1
  C  C154  1  0.92998271  0.06832250  0.62116351  1
  O  O155  1  0.57028436  0.44623209  0.50641431  1
  C  C156  1  0.97927730  0.14307555  0.64092830  1
  C  C157  1  0.90245121  0.38451876  0.71493310  1
  O  O158  1  0.83040743  0.01285477  0.57313568  1
  H  H159  1  0.50510138  0.26248899  0.56880605  1
  C  C160  1  0.85758429  0.23336405  0.55423523  1
  H  H161  1  0.72322324  0.06231100  0.67534675  1
  H  H162  1  0.93449787  0.48408326  0.68817012  1
  O  O163  1  0.83956802  0.42295469  0.51397781  1
  C  C164  1  0.91134425  0.10166421  0.74806739  1
  H  H165  1  0.68482632  0.14551548  0.77196378  1
  H  H166  1  0.62316922  0.30808593  0.86023945  1
  C  C167  1  0.81496551  0.45783036  0.75100876  1
  O  O168  1  0.68611783  0.44845103  0.93639523  1
  O  O169  1  0.74822998  0.30603051  0.84385776  1
  C  C170  1  0.82304061  0.19663910  0.78779860  1
  H  H171  1  0.96945551  0.11268798  0.83763810  1
  C  C172  1  0.52532147  0.36978195  0.79259338  1
  C  C173  1  0.86950463  0.02744845  0.78507225  1
  C  C174  1  0.78471538  0.11808089  0.83405313  1
  C  C175  1  0.59165795  0.45398913  0.88013242  1
  H  H176  1  0.54930850  0.84935608  0.18524769  1
  O  O177  1  0.62775369  0.90037150  0.12688280  1
  O  O178  1  0.65850768  0.74412397  0.00925918  1
  C  C179  1  0.92583761  0.50379899  0.21110810  1
  H  H180  1  0.77038344  0.88657069  0.19969556  1
  C  C181  1  0.85853183  0.78131564  0.16027093  1
  C  C182  1  0.81453797  0.75544459  0.07088787  1
  C  C183  1  0.87197475  0.59319732  0.21379826  1
  H  H184  1  0.95065800  0.58062506  0.17211794  1
  C  C185  1  0.81626593  0.65254142  0.12957434  1
  C  C186  1  0.85257200  0.94239907  0.04453512  1
  C  C187  1  0.77851720  0.59813866  0.02696922  1
  Cu  Cu188  1  0.68075046  0.61955100  0.08757554  1
  H  H189  1  0.64394718  0.66073149  0.22694223  1
  C  C190  1  0.75924166  0.83370598  0.24494279  1
  C  C191  1  0.61115659  0.51459072  0.23749401  1
  H  H192  1  0.99875203  0.96487127  0.17898780  1
  H  H193  1  0.57051459  0.94125589  0.00083863  1
  H  H194  1  0.58243744  0.78463074  0.31177693  1
  O  O195  1  0.68213423  0.91886508  0.44655375  1
  C  C196  1  0.71737100  0.74537872  0.42531100  1
  C  C197  1  0.72923027  0.76497597  0.36177084  1
  H  H198  1  0.51968990  0.94489860  0.36924727  1
  C  C199  1  0.69926104  0.95840726  0.32609635  1
  Cu  Cu200  1  0.62291359  0.76465345  0.49632232  1
  C  C201  1  0.92269145  0.51363644  0.41612378  1
  O  O202  1  0.74655505  0.58217313  0.45791908  1
  H  H203  1  0.50145011  0.51589514  0.31763299  1
  C  C204  1  0.97094088  0.55250799  0.43907746  1
  H  H205  1  0.86582450  0.70335857  0.35561865  1
  C  C206  1  0.93774593  0.97243089  0.35082751  1
  C  C207  1  0.90430654  0.73159303  0.37450354  1
  C  C208  1  0.78956338  0.63393216  0.28304779  1
  C  C209  1  0.57572505  0.59025727  0.28083396  1
  C  C210  1  0.77180277  0.59656383  0.34133165  1
  C  C211  1  0.84224471  0.50674787  0.26597975  1
  C  C212  1  0.66966523  0.68230601  0.64940197  1
  O  O213  1  0.72723926  0.82137249  0.57323814  1
  H  H214  1  0.53821653  0.67310725  0.64819541  1
  C  C215  1  0.60569631  0.54701073  0.72629326  1
  C  C216  1  0.69151060  0.90755499  0.68795028  1
  C  C217  1  0.68788071  0.66079352  0.58888525  1
  C  C218  1  0.85326815  0.53661105  0.71132964  1
  C  C219  1  0.66864422  0.94766184  0.74211697  1
  H  H220  1  0.92130169  0.69479559  0.52675169  1
  C  C221  1  0.96184086  0.91342378  0.74374885  1
  H  H222  1  0.84927159  0.73308417  0.67566175  1
  C  C223  1  0.94048922  0.52475239  0.55462086  1
  H  H224  1  0.90790043  0.86361768  0.63966636  1
  Cu  Cu225  1  0.78723203  0.74280854  0.52446808  1
  C  C226  1  0.99164837  0.56876266  0.57223941  1
  C  C227  1  0.99773868  0.98171491  0.69611372  1
  C  C228  1  0.50045264  0.68290896  0.62571688  1
  O  O229  1  0.66352868  0.50102421  0.54989638  1
  C  C230  1  0.62774842  0.50234673  0.67036592  1
  H  H231  1  0.78073015  0.61525126  0.74751138  1
  C  C232  1  0.59891563  0.62700020  0.93240952  1
  C  C233  1  0.54287079  0.50679360  0.85161448  1
  C  C234  1  0.65035333  0.59025642  0.96218101  1
  H  H235  1  0.60884750  0.84232498  0.80760598  1
  C  C236  1  0.56065666  0.82177762  0.95904702  1
  O  O237  1  0.79302404  0.88758518  0.86855455  1
  H  H238  1  0.95140826  0.64769422  0.82346986  1
  C  C239  1  0.98054052  0.69942839  0.78857943  1
  C  C240  1  0.50382403  0.70336425  0.87752904  1
  H  H241  1  0.86942630  0.81363056  0.81171367  1
  H  H242  1  0.98049486  0.84910719  0.94050763  1
  O  O243  1  0.78235831  0.61750533  0.97328333  1
  Cu  Cu244  1  0.74197801  0.64608309  0.90378265  1
  H  H245  1  0.84633498  0.99564321  0.99829039  1
  C  C246  1  0.51182511  0.84631343  0.93373587  1
  C  C247  1  0.62494117  0.78210823  0.76410822  1
