# generated using pymatgen
data_ZnH8C12NO4
_symmetry_space_group_name_H-M   'P 1'
_cell_length_a   18.77502265
_cell_length_b   16.64358762
_cell_length_c   16.78652368
_cell_angle_alpha   90.00000000
_cell_angle_beta   90.00000000
_cell_angle_gamma   90.00000000
_symmetry_Int_Tables_number   1
_chemical_formula_structural   ZnH8C12NO4
_chemical_formula_sum   'Zn16 H128 C192 N16 O64'
_cell_volume   5245.51560733
_cell_formula_units_Z   16
loop_
 _symmetry_equiv_pos_site_id
 _symmetry_equiv_pos_as_xyz
  1  'x, y, z'
loop_
 _atom_site_type_symbol
 _atom_site_label
 _atom_site_symmetry_multiplicity
 _atom_site_fract_x
 _atom_site_fract_y
 _atom_site_fract_z
 _atom_site_occupancy
  C  C0  1  0.19939502  0.08650035  0.45622884  1
  H  H1  1  0.11359795  0.03606395  0.32906251  1
  C  C2  1  0.09871448  0.01509777  0.38873081  1
  C  C3  1  0.02311740  0.17807834  0.42981899  1
  Zn  Zn4  1  0.23876141  0.02485229  0.27536950  1
  H  H5  1  0.07529505  0.07726811  0.20397139  1
  H  H6  1  0.02382777  0.32715985  0.34997474  1
  O  O7  1  0.21271170  0.11832540  0.39255907  1
  C  C8  1  0.02593013  0.03035851  0.04778256  1
  C  C9  1  0.13769324  0.48697019  0.07755557  1
  H  H10  1  0.18089731  0.25675729  0.13135573  1
  H  H11  1  0.08493842  0.46159382  0.06029723  1
  C  C12  1  0.04712735  0.11283929  0.03027970  1
  C  C13  1  0.13618309  0.03416731  0.45864063  1
  H  H14  1  0.08202723  0.19400359  0.43743170  1
  H  H15  1  0.10108992  0.17066600  0.14455851  1
  O  O16  1  0.02010965  0.47578989  0.20454675  1
  C  C17  1  0.18706536  0.10653343  0.20547583  1
  C  C18  1  0.24757795  0.16123661  0.19273944  1
  C  C19  1  0.00786638  0.48659468  0.42616504  1
  C  C20  1  0.11922556  0.11920274  0.18141895  1
  C  C21  1  0.19181416  0.48789658  0.02028212  1
  H  H22  1  0.01455380  0.16410625  0.05667816  1
  C  C23  1  0.02124623  0.48911843  0.27642211  1
  H  H24  1  0.17318018  0.49239314  0.39132212  1
  C  C25  1  0.23751747  0.23986740  0.15251956  1
  H  H26  1  0.01562080  0.12023381  0.46019005  1
  H  H27  1  0.06475022  0.49762106  0.43361214  1
  O  O28  1  0.18080596  0.36325317  0.52383325  1
  C  C29  1  0.04939054  0.16483257  0.60598630  1
  H  H30  1  0.07888702  0.11784798  0.57067398  1
  H  H31  1  0.15573274  0.01056268  0.58152932  1
  O  O32  1  0.09605312  0.10308950  0.80098948  1
  O  O33  1  0.08669155  0.02716632  0.69282923  1
  Zn  Zn34  1  0.12475852  0.00213505  0.98522598  1
  C  C35  1  0.07482389  0.37357885  0.69998627  1
  C  C36  1  0.07864256  0.45401915  0.67261128  1
  C  C37  1  0.11657894  0.41750110  0.92029812  1
  H  H38  1  0.09463035  0.30066166  0.80523017  1
  H  H39  1  0.07476941  0.42520941  0.53946730  1
  C  C40  1  0.08264523  0.09252613  0.73211889  1
  C  C41  1  0.20873976  0.32095659  0.66654560  1
  C  C42  1  0.10718549  0.42757030  0.82962746  1
  C  C43  1  0.23327739  0.24569377  0.70967150  1
  N  N44  1  0.18433672  0.46008948  0.94369100  1
  C  C45  1  0.04147200  0.16130956  0.68845124  1
  H  H46  1  0.06510720  0.32213647  0.66059842  1
  C  C47  1  0.08931625  0.36086941  0.77958042  1
  H  H48  1  0.11973135  0.35449599  0.94757674  1
  C  C49  1  0.06460584  0.47387565  0.58596990  1
  H  H50  1  0.21814133  0.38061140  0.69828567  1
  C  C51  1  0.19089067  0.32439301  0.58102968  1
  H  H52  1  0.21806578  0.47214234  0.90071168  1
  Zn  Zn53  1  0.22184467  0.19446062  0.59453280  1
  O  O54  1  0.16153072  0.17872609  0.97786894  1
  C  C55  1  0.00517910  0.22422901  0.57053707  1
  C  C56  1  0.00087735  0.20956291  0.73802841  1
  H  H57  1  0.00720691  0.20343202  0.80456006  1
  H  H58  1  0.07843777  0.45620066  0.95130703  1
  C  C59  1  0.11669991  0.13134983  0.99463130  1
  O  O60  1  0.23370761  0.10026571  0.51988999  1
  H  H61  1  0.20901374  0.68930495  0.05712930  1
  C  C62  1  0.15424467  0.51620952  0.15530385  1
  C  C63  1  0.02285188  0.92033303  0.46599543  1
  O  O64  1  0.11572859  0.74047822  0.32720163  1
  C  C65  1  0.05549841  0.70469806  0.46400598  1
  O  O66  1  0.02524314  0.66743343  0.02788244  1
  C  C67  1  0.10338699  0.50767498  0.22120934  1
  C  C68  1  0.07437770  0.71994945  0.37810835  1
  H  H69  1  0.19444185  0.93416905  0.36764476  1
  C  C70  1  0.04496748  0.95631589  0.39483899  1
  C  C71  1  0.22373281  0.54242287  0.17287308  1
  N  N72  1  0.24317644  0.92308292  0.34190363  1
  C  C73  1  0.24151019  0.55654982  0.47843040  1
  O  O74  1  0.02581272  0.96453394  0.24255878  1
  O  O75  1  0.10516769  0.51447705  0.29274529  1
  H  H76  1  0.24060850  0.56318201  0.23422497  1
  C  C77  1  0.00229296  0.93586864  0.31910332  1
  C  C78  1  0.23054120  0.50753582  0.40625123  1
  N  N79  1  0.06386816  0.89523019  0.60636030  1
  C  C80  1  0.10110689  0.50803604  0.80552789  1
  C  C81  1  0.14409966  0.83331800  0.80870944  1
  H  H82  1  0.03161037  0.66822560  0.78026254  1
  C  C83  1  0.08791746  0.52041011  0.72422318  1
  H  H84  1  0.17833649  0.88112589  0.77478989  1
  C  C85  1  0.13896143  0.84119927  0.89299507  1
  C  C86  1  0.06546533  0.71929599  0.89369419  1
  C  C87  1  0.10164200  0.75341370  0.68303661  1
  O  O88  1  0.07285282  0.70533631  0.64494147  1
  N  N89  1  0.17398872  0.90028888  0.93808812  1
  C  C90  1  0.10732309  0.76983732  0.76805316  1
  Zn  Zn91  1  0.16959014  0.84926141  0.64784894  1
  H  H92  1  0.20624150  0.93601945  0.90687153  1
  H  H93  1  0.10473214  0.56018315  0.84858016  1
  C  C94  1  0.06311435  0.71417065  0.81111067  1
  C  C95  1  0.06482599  0.94075618  0.53398673  1
  H  H96  1  0.08274203  0.58112918  0.70027832  1
  C  C97  1  0.10095616  0.78041435  0.93274351  1
  H  H98  1  0.03962583  0.84195090  0.60327109  1
  C  C99  1  0.12267574  0.99537106  0.52963126  1
  Zn  Zn100  1  0.00604340  0.93194666  0.70300805  1
  C  C101  1  0.02318812  0.65913005  0.94338729  1
  H  H102  1  0.08468499  0.53410281  0.56293604  1
  O  O103  1  0.22108039  0.59990628  0.52901247  1
  H  H104  1  0.01264306  0.86092054  0.82122556  1
  H  H105  1  0.24855473  0.56545339  0.88970235  1
  H  H106  1  0.09814984  0.78170004  0.99840224  1
  H  H107  1  0.09681893  0.72236822  0.51300600  1
  O  O108  1  0.44524183  0.21973714  0.23638971  1
  C  C109  1  0.31413960  0.42097028  0.29993593  1
  H  H110  1  0.37119172  0.40911803  0.29966606  1
  N  N111  1  0.46883377  0.45311509  0.44595036  1
  H  H112  1  0.28081782  0.40178599  0.25206142  1
  C  C113  1  0.44802593  0.06199911  0.08554541  1
  H  H114  1  0.40766177  0.06980479  0.45097917  1
  C  C115  1  0.39280237  0.02501858  0.04625408  1
  C  C116  1  0.49829921  0.03638471  0.36566821  1
  H  H117  1  0.44763860  0.06846887  0.15192819  1
  C  C118  1  0.45045893  0.02330692  0.43876300  1
  C  C119  1  0.28552600  0.46611489  0.36135223  1
  H  H120  1  0.46393032  0.40061321  0.48182272  1
  C  C121  1  0.47546640  0.36184569  0.33225431  1
  H  H122  1  0.45417525  0.30969074  0.36559051  1
  C  C123  1  0.32871766  0.00803203  0.10043715  1
  H  H124  1  0.29846246  0.14392674  0.22262336  1
  O  O125  1  0.27184720  0.29961242  0.14327249  1
  C  C126  1  0.48171365  0.43943419  0.36452444  1
  O  O127  1  0.33494169  0.01399873  0.17232877  1
  H  H128  1  0.46618012  0.17840925  0.49753443  1
  C  C129  1  0.48719617  0.35405883  0.24940571  1
  C  C130  1  0.47491683  0.27729485  0.20739750  1
  C  C131  1  0.44017642  0.03788816  0.64281979  1
  H  H132  1  0.39062359  0.44872663  0.71276155  1
  O  O133  1  0.33147570  0.06005972  0.82002227  1
  O  O134  1  0.44458787  0.31434352  0.53063775  1
  C  C135  1  0.38657347  0.05174343  0.78448393  1
  C  C136  1  0.45297691  0.03156275  0.91753694  1
  C  C137  1  0.45364523  0.15355640  0.55478929  1
  H  H138  1  0.38021419  0.21150873  0.73575528  1
  C  C139  1  0.46375127  0.07001895  0.56854498  1
  C  C140  1  0.40548180  0.17132094  0.69219158  1
  C  C141  1  0.46119709  0.01223179  0.82758872  1
  O  O142  1  0.28989761  0.47757591  0.80477977  1
  C  C143  1  0.42769814  0.19968799  0.61886092  1
  C  C144  1  0.41321071  0.08842419  0.70501576  1
  C  C145  1  0.41933635  0.29300099  0.59546785  1
  O  O146  1  0.39833358  0.34279785  0.64600721  1
  H  H147  1  0.47948090  0.43012068  0.60541752  1
  C  C148  1  0.39371671  0.01371905  0.96391302  1
  H  H149  1  0.26778239  0.16427628  0.79934748  1
  C  C150  1  0.25266228  0.22883612  0.78404004  1
  H  H151  1  0.25967435  0.27996435  0.83163922  1
  N  N152  1  0.49800228  0.02314394  0.51007136  1
  C  C153  1  0.32290182  0.72083679  0.03090803  1
  C  C154  1  0.28845657  0.91228716  0.47177334  1
  C  C155  1  0.43386425  0.79578361  0.07531047  1
  C  C156  1  0.38241972  0.81580617  0.49591717  1
  C  C157  1  0.39282052  0.81006997  0.41382230  1
  H  H158  1  0.46073861  0.92138019  0.32063549  1
  O  O159  1  0.47198806  0.70194667  0.43838262  1
  C  C160  1  0.27493313  0.53658461  0.11417553  1
  C  C161  1  0.35596086  0.85276327  0.35920216  1
  Zn  Zn162  1  0.44846231  0.68400180  0.22283913  1
  C  C163  1  0.35000387  0.56168032  0.14557792  1
  O  O164  1  0.39919887  0.54844386  0.10045877  1
  O  O165  1  0.36187204  0.59185139  0.21236770  1
  O  O166  1  0.48113707  0.76021609  0.32064504  1
  O  O167  1  0.41610896  0.77957415  0.14489487  1
  C  C168  1  0.45321572  0.74892950  0.38818167  1
  C  C169  1  0.29642908  0.89919948  0.38856627  1
  H  H170  1  0.42803273  0.96111565  0.44395434  1
  H  H171  1  0.36701120  0.84987457  0.29447173  1
  O  O172  1  0.27522082  0.97868174  0.06591553  1
  Zn  Zn173  1  0.35225005  0.50383858  0.46232147  1
  C  C174  1  0.26456168  0.51012496  0.03891859  1
  O  O175  1  0.38987890  0.78294176  0.01530113  1
  H  H176  1  0.34359002  0.65711968  0.03775293  1
  Zn  Zn177  1  0.25802730  0.85655428  0.03409099  1
  C  C178  1  0.49225109  0.97506699  0.30837673  1
  H  H179  1  0.25072765  0.95851138  0.49194569  1
  C  C180  1  0.25233668  0.73394447  0.04233835  1
  C  C181  1  0.32257021  0.88013201  0.61025327  1
  C  C182  1  0.47481733  0.53369214  0.67262242  1
  Zn  Zn183  1  0.39460739  0.92384754  0.76880371  1
  O  O184  1  0.47432768  0.78856922  0.79873600  1
  O  O185  1  0.36795181  0.84694233  0.65635622  1
  H  H186  1  0.48084632  0.85075765  0.93194696  1
  H  H187  1  0.45264169  0.97270482  0.64848660  1
  O  O188  1  0.29935838  0.58604536  0.88202817  1
  H  H189  1  0.41488836  0.77629081  0.53349455  1
  H  H190  1  0.39998789  0.67264667  0.83950628  1
  H  H191  1  0.34692283  0.99282021  0.93351929  1
  O  O192  1  0.26953717  0.91617953  0.63727650  1
  C  C193  1  0.41837464  0.63449942  0.79426777  1
  C  C194  1  0.47101345  0.66075026  0.74249754  1
  C  C195  1  0.38824264  0.55869442  0.78031361  1
  C  C196  1  0.41739731  0.50833247  0.72048155  1
  C  C197  1  0.32111824  0.53449051  0.82312878  1
  H  H198  1  0.30918340  0.50138445  0.99559655  1
  C  C199  1  0.32980573  0.86693975  0.52233226  1
  C  C200  1  0.52234935  0.41251132  0.20309553  1
  C  C201  1  0.74501241  0.28405427  0.23778449  1
  H  H202  1  0.66124340  0.18519472  0.48100070  1
  H  H203  1  0.59368885  0.18169586  0.26323894  1
  C  C204  1  0.71354892  0.07372863  0.31568025  1
  C  C205  1  0.56005930  0.06425109  0.21683538  1
  C  C206  1  0.53545035  0.11042027  0.35093625  1
  H  H207  1  0.74730755  0.12441823  0.20307409  1
  H  H208  1  0.71120643  0.19715731  0.04104679  1
  C  C209  1  0.56547265  0.12515230  0.27437646  1
  N  N210  1  0.57085785  0.12038622  0.07326330  1
  C  C211  1  0.50849338  0.08687012  0.04030281  1
  C  C212  1  0.69021086  0.09080445  0.39401818  1
  O  O213  1  0.50564518  0.26707618  0.12442827  1
  H  H214  1  0.69835947  0.30147689  0.39882313  1
  H  H215  1  0.60027569  0.49727348  0.11803227  1
  C  C216  1  0.73667889  0.13792213  0.26690637  1
  C  C217  1  0.60080515  0.06730518  0.13635518  1
  H  H218  1  0.71204239  0.01255782  0.29473557  1
  O  O219  1  0.71592499  0.41095840  0.14133548  1
  H  H220  1  0.60494868  0.15630978  0.03570217  1
  C  C221  1  0.72688453  0.21773350  0.29780550  1
  H  H222  1  0.64751617  0.11057521  0.13976651  1
  H  H223  1  0.54441035  0.39617200  0.14753251  1
  C  C224  1  0.68345611  0.17177400  0.42179493  1
  C  C225  1  0.71654777  0.34776244  0.11147179  1
  O  O226  1  0.72784390  0.27470879  0.15438779  1
  C  C227  1  0.70152351  0.23688179  0.37688277  1
  C  C228  1  0.70997363  0.32972626  0.02513905  1
  H  H229  1  0.53404376  0.15508131  0.39912264  1
  H  H230  1  0.71726028  0.34051803  0.25779504  1
  C  C231  1  0.66093967  0.02700257  0.45219432  1
  H  H232  1  0.60420266  0.01370932  0.43631529  1
  H  H233  1  0.50987944  0.21101095  0.12255729  1
  O  O234  1  0.74180430  0.44729450  0.34055039  1
  O  O235  1  0.74782861  0.42393394  0.46557518  1
  H  H236  1  0.61176547  0.01201549  0.09754854  1
  C  C237  1  0.53046443  0.48926352  0.23889642  1
  C  C238  1  0.70461453  0.24806567  0.00100085  1
  H  H239  1  0.70406620  0.45972788  0.00253935  1
  H  H240  1  0.66752301  0.03960046  0.51511678  1
  H  H241  1  0.71723820  0.09421746  0.66524548  1
  Zn  Zn242  1  0.60844652  0.43323602  0.73807675  1
  O  O243  1  0.66334111  0.13998270  0.81881552  1
  H  H244  1  0.67603702  0.28154767  0.80624641  1
  N  N245  1  0.69616509  0.43768580  0.84192816  1
  C  C246  1  0.69141772  0.23043105  0.92138405  1
  C  C247  1  0.68572033  0.14614980  0.88628333  1
  C  C248  1  0.70112096  0.39831278  0.97710781  1
  C  C249  1  0.68797108  0.29569262  0.86975125  1
  O  O250  1  0.68516089  0.08268240  0.93081681  1
  O  O251  1  0.60635975  0.27263711  0.64274048  1
  H  H252  1  0.55633117  0.08181634  0.92141595  1
  C  C253  1  0.74246718  0.04133861  0.63957221  1
  C  C254  1  0.50943744  0.07013333  0.95731830  1
  C  C255  1  0.62649255  0.34084773  0.64545887  1
  C  C256  1  0.69234604  0.37551696  0.89850585  1
  H  H257  1  0.70993282  0.39298528  0.56458600  1
  O  O258  1  0.51472975  0.00544451  0.78956958  1
  C  C259  1  0.67042322  0.40608247  0.61399389  1
  N  N260  1  0.50380584  0.48186626  0.61900126  1
  C  C261  1  0.67438131  0.48766303  0.65316265  1
  H  H262  1  0.68271679  0.49420060  0.85969996  1
  H  H263  1  0.69289710  0.91302188  0.01376094  1
  Zn  Zn264  1  0.65177104  0.71801576  0.35477223  1
  C  C265  1  0.71723996  0.63225246  0.40374840  1
  H  H266  1  0.59377870  0.54142417  0.39086316  1
  C  C267  1  0.62554850  0.87069428  0.10547817  1
  H  H268  1  0.54789137  0.82536932  0.18029785  1
  O  O269  1  0.67768692  0.93308595  0.43771858  1
  C  C270  1  0.55691133  0.84020357  0.11696276  1
  C  C271  1  0.56019261  0.55991749  0.19517190  1
  H  H272  1  0.74829588  0.57550769  0.41236766  1
  N  N273  1  0.58948768  0.58587636  0.43470485  1
  C  C274  1  0.73263300  0.78607196  0.40571975  1
  O  O275  1  0.74945509  0.86776545  0.14900515  1
  C  C276  1  0.67635113  0.86794364  0.17561367  1
  O  O277  1  0.59145606  0.55650462  0.12375694  1
  C  C278  1  0.66435257  0.79466099  0.45242771  1
  O  O279  1  0.54950668  0.62871203  0.22500819  1
  C  C280  1  0.64470027  0.63818797  0.44725006  1
  O  O281  1  0.65863149  0.85606110  0.24301068  1
  C  C282  1  0.50682082  0.50242288  0.31625412  1
  C  C283  1  0.63952128  0.89541795  0.02826909  1
  H  H284  1  0.50956974  0.56475404  0.33427629  1
  H  H285  1  0.52098797  0.94415745  0.18690927  1
  C  C286  1  0.50277399  0.83232313  0.06040685  1
  C  C287  1  0.52647938  0.99009128  0.23409922  1
  C  C288  1  0.62646454  0.72025813  0.48046073  1
  C  C289  1  0.63930370  0.87654083  0.47017588  1
  C  C290  1  0.51896418  0.85570355  0.98061489  1
  Zn  Zn291  1  0.62781533  0.84972852  0.77845226  1
  H  H292  1  0.54865258  0.63496875  0.65248578  1
  H  H293  1  0.73158943  0.83867685  0.65721010  1
  N  N294  1  0.60828295  0.91537883  0.89078343  1
  C  C295  1  0.70554446  0.55665935  0.64426033  1
  C  C296  1  0.58796986  0.88356618  0.96802308  1
  N  N297  1  0.67115271  0.95535963  0.73595649  1
  C  C298  1  0.71638948  0.96579096  0.66629234  1
  H  H299  1  0.57431406  0.95847105  0.86175779  1
  H  H300  1  0.58422539  0.73502855  0.52421164  1
  O  O301  1  0.56491766  0.76311377  0.72243790  1
  H  H302  1  0.69618634  0.60817320  0.68502109  1
  H  H303  1  0.74204596  0.56185558  0.59292100  1
  Zn  Zn304  1  0.70277344  0.97700541  0.86237028  1
  Zn  Zn305  1  0.54599434  0.51455477  0.51549625  1
  C  C306  1  0.50405510  0.61232083  0.68739797  1
  H  H307  1  0.73081204  0.58577460  0.99730899  1
  H  H308  1  0.52436864  0.97070743  0.52945062  1
  H  H309  1  0.62604973  0.99118070  0.73628452  1
  C  C310  1  0.50587368  0.74106615  0.75541492  1
  O  O311  1  0.58550414  0.89196016  0.50679221  1
  H  H312  1  0.82080760  0.39775344  0.05254707  1
  C  C313  1  0.85332734  0.45141307  0.05412004  1
  N  N314  1  0.99720376  0.23865409  0.48845796  1
  H  H315  1  0.91253174  0.29324700  0.08773068  1
  H  H316  1  0.90529173  0.09149270  0.19996317  1
  C  C317  1  0.93516129  0.13786261  0.23222254  1
  C  C318  1  0.77555532  0.44733610  0.40267854  1
  C  C319  1  0.93337610  0.45119833  0.04759985  1
  H  H320  1  0.97275456  0.34239354  0.21211887  1
  C  C321  1  0.90460626  0.46628116  0.33933678  1
  H  H322  1  0.80581139  0.29021187  0.23073174  1
  C  C323  1  0.86252693  0.46076324  0.40628206  1
  H  H324  1  0.96003529  0.28242501  0.47436762  1
  C  C325  1  0.91347793  0.23465908  0.11995607  1
  N  N326  1  0.89981615  0.18013493  0.06835259  1
  H  H327  1  0.87976268  0.46124313  0.28178108  1
  H  H328  1  0.96329793  0.06447685  0.33552683  1
  H  H329  1  0.89795773  0.12641581  0.09490689  1
  C  C330  1  0.96538087  0.12532002  0.30727486  1
  C  C331  1  0.93955637  0.21840605  0.20054794  1
  C  C332  1  0.97992169  0.47883012  0.34875503  1
  O  O333  1  0.97829176  0.40200616  0.04070151  1
  C  C334  1  0.99528581  0.27475243  0.31917452  1
  C  C335  1  0.98921313  0.19501082  0.34977075  1
  C  C336  1  0.96839044  0.28621288  0.24287081  1
  C  C337  1  0.88723988  0.47238799  0.48289184  1
  H  H338  1  0.88261497  0.18528372  0.49337529  1
  O  O339  1  0.86701064  0.12753158  0.49116001  1
  C  C340  1  0.96349890  0.47974205  0.49184824  1
  C  C341  1  0.79432475  0.04719667  0.57993209  1
  C  C342  1  0.84689031  0.03724892  0.82074210  1
  H  H343  1  0.92130644  0.31718859  0.58770683  1
  N  N344  1  0.98665235  0.48217271  0.57086326  1
  H  H345  1  0.95342593  0.49669223  0.61728651  1
  H  H346  1  0.87903964  0.17757698  0.75599382  1
  C  C347  1  0.90517307  0.25306402  0.85941950  1
  C  C348  1  0.95965055  0.27419978  0.61648912  1
  C  C349  1  0.92580049  0.48828933  0.78760359  1
  H  H350  1  0.96644030  0.45283232  0.75809798  1
  C  C351  1  0.86858556  0.11483443  0.86783983  1
  O  O352  1  0.86128791  0.36023280  0.69803908  1
  C  C353  1  0.90544614  0.32358894  0.73495290  1
  C  C354  1  0.86708967  0.11286285  0.94909103  1
  C  C355  1  0.95897311  0.26712863  0.69861094  1
  O  O356  1  0.92892501  0.39478220  0.85772575  1
  C  C357  1  0.91383935  0.33176282  0.82384752  1
  C  C358  1  0.88595867  0.17933216  0.82136502  1
  C  C359  1  0.90252347  0.25918032  0.94413254  1
  Zn  Zn360  1  0.79717595  0.47077527  0.79872257  1
  H  H361  1  0.85327681  0.05751627  0.98395648  1
  O  O362  1  0.86697316  0.02344684  0.75422469  1
  C  C363  1  0.80966650  0.12808888  0.55036569  1
  O  O364  1  0.78684274  0.18798380  0.57585880  1
  H  H365  1  0.85600936  0.46681798  0.53489870  1
  H  H366  1  0.91863881  0.31577432  0.97230153  1
  C  C367  1  0.88533616  0.18900008  0.98777595  1
  O  O368  1  0.95134023  0.89400890  0.31980958  1
  H  H369  1  0.79269503  0.64446648  0.06755185  1
  O  O370  1  0.86176888  0.64605627  0.32139463  1
  C  C371  1  0.75700257  0.70439936  0.37479723  1
  H  H372  1  0.96243086  0.51123459  0.03546192  1
  Zn  Zn373  1  0.97367880  0.66820869  0.36030666  1
  C  C374  1  0.78852938  0.59672414  0.01734615  1
  O  O375  1  0.80404218  0.75163477  0.26696813  1
  H  H376  1  0.98358670  0.86748661  0.46841749  1
  C  C377  1  0.81506954  0.69956672  0.31655498  1
  C  C378  1  0.82453019  0.52164741  0.03310992  1
  H  H379  1  0.76828210  0.83227541  0.18989514  1
  H  H380  1  0.77099524  0.83727958  0.39312575  1
  H  H381  1  0.98051138  0.95511743  0.21146836  1
  O  O382  1  0.91223324  0.97336369  0.10873793  1
  H  H383  1  0.98011190  0.63966200  0.04085231  1
  C  C384  1  0.96584035  0.99663799  0.08052202  1
  C  C385  1  0.98355838  0.68621361  0.49282598  1
  H  H386  1  0.90015830  0.77532323  0.90014472  1
  C  C387  1  0.82690354  0.97694143  0.55029586  1
  C  C388  1  0.90751399  0.81662757  0.77626496  1
  C  C389  1  0.80309817  0.70814231  0.73752377  1
  C  C390  1  0.88263133  0.76653931  0.83782919  1
  H  H391  1  0.91828954  0.84460921  0.65017760  1
  C  C392  1  0.82946174  0.71059074  0.81486035  1
  H  H393  1  0.94856385  0.93773659  0.81912637  1
  N  N394  1  0.96526909  0.88066143  0.79305827  1
  O  O395  1  0.87013134  0.54609545  0.65745639  1
  C  C396  1  0.83293469  0.75727127  0.67668205  1
  C  C397  1  0.88954092  0.81104578  0.69548287  1
  O  O398  1  0.81843193  0.98414638  0.86474730  1
  C  C399  1  0.81015889  0.75195080  0.59214450  1
  H  H400  1  0.88537429  0.65548660  0.54140029  1
  C  C401  1  0.84510236  0.83111005  0.55167268  1
  C  C402  1  0.93973901  0.67575997  0.55347793  1
  C  C403  1  0.87650049  0.52322925  0.72381618  1
  C  C404  1  0.80704061  0.90299661  0.58121634  1
  C  C405  1  0.79556645  0.65935994  0.87824054  1
  H  H406  1  0.95160480  0.53816056  0.82739668  1
  O  O407  1  0.81818568  0.66884606  0.95176215  1
  H  H408  1  0.95444737  0.68234743  0.61939062  1
  O  O409  1  0.99343625  0.60102372  0.91527326  1
  H  H410  1  0.75896519  0.66709378  0.72440752  1
  O  O411  1  0.76695278  0.70319648  0.57237849  1
  H  H412  1  0.86574906  0.98257735  0.50151620  1
  C  C413  1  0.75005273  0.89693901  0.63778291  1
  O  O414  1  0.75060666  0.61338040  0.85917068  1
  O  O415  1  0.89281725  0.83246341  0.50611660  1
