# generated using pymatgen
data_Zn4H14C30O13
_symmetry_space_group_name_H-M   'P 1'
_cell_length_a   22.75116115
_cell_length_b   21.86128689
_cell_length_c   24.17026232
_cell_angle_alpha   90.00000000
_cell_angle_beta   90.00000000
_cell_angle_gamma   90.00000000
_symmetry_Int_Tables_number   1
_chemical_formula_structural   Zn4H14C30O13
_chemical_formula_sum   'Zn32 H112 C240 O104'
_cell_volume   12021.55517161
_cell_formula_units_Z   8
loop_
 _symmetry_equiv_pos_site_id
 _symmetry_equiv_pos_as_xyz
  1  'x, y, z'
loop_
 _atom_site_type_symbol
 _atom_site_label
 _atom_site_symmetry_multiplicity
 _atom_site_fract_x
 _atom_site_fract_y
 _atom_site_fract_z
 _atom_site_occupancy
  C  C0  1  0.31045013  0.17914291  0.01292534  1
  H  H1  1  0.45288440  0.23005031  0.17583120  1
  C  C2  1  0.29087236  0.18768601  0.12793983  1
  C  C3  1  0.38148575  0.28529009  0.21403169  1
  H  H4  1  0.30741541  0.34387931  0.23719690  1
  C  C5  1  0.35306018  0.07767872  0.02218356  1
  H  H6  1  0.21364510  0.04285665  0.19425920  1
  C  C7  1  0.36885722  0.33852435  0.10992513  1
  C  C8  1  0.33149880  0.35638221  0.15184366  1
  O  O9  1  0.40385177  0.35705775  0.02171228  1
  C  C10  1  0.41401413  0.29449414  0.11883934  1
  C  C11  1  0.42021182  0.26684250  0.16924506  1
  C  C12  1  0.36249051  0.36571014  0.05437383  1
  C  C13  1  0.22664122  0.14229123  0.19463351  1
  H  H14  1  0.44304670  0.27965706  0.08362859  1
  C  C15  1  0.24939769  0.19492234  0.16927407  1
  C  C16  1  0.29567196  0.12868668  0.10399934  1
  H  H17  1  0.29709069  0.39032667  0.14366841  1
  C  C18  1  0.32425774  0.12834759  0.04661653  1
  H  H19  1  0.31408415  0.22672518  0.10797389  1
  C  C20  1  0.27092770  0.07402617  0.12848967  1
  C  C21  1  0.23852237  0.08237953  0.17475936  1
  C  C22  1  0.33787622  0.33030573  0.20427483  1
  O  O23  1  0.31373895  0.38605638  0.04225751  1
  H  H24  1  0.35834699  0.03296798  0.04543757  1
  H  H25  1  0.27837506  0.02805677  0.10947075  1
  H  H26  1  0.27959673  0.21362564  0.02634897  1
  H  H27  1  0.23983117  0.23816242  0.18887346  1
  C  C28  1  0.18302381  0.14654397  0.24071815  1
  C  C29  1  0.44318157  0.19381381  0.33548012  1
  Zn  Zn30  1  0.12088567  0.08498957  0.33926511  1
  C  C31  1  0.13045809  0.34641217  0.46918305  1
  Zn  Zn32  1  0.20247343  0.12949865  0.44514058  1
  O  O33  1  0.13598757  0.15238197  0.39377512  1
  C  C34  1  0.13815144  0.39792831  0.43706090  1
  H  H35  1  0.12252962  0.40011400  0.39321167  1
  O  O36  1  0.28562814  0.18373865  0.43441832  1
  C  C37  1  0.17044122  0.44475739  0.46368188  1
  O  O38  1  0.02775056  0.08242698  0.32607761  1
  Zn  Zn39  1  0.15960422  0.22695339  0.34361930  1
  Zn  Zn40  1  0.06043571  0.16037962  0.44133758  1
  C  C41  1  0.18844795  0.49859519  0.42829016  1
  C  C42  1  0.09738457  0.29495743  0.43859670  1
  H  H43  1  0.40135438  0.16337670  0.41263730  1
  C  C44  1  0.39625587  0.18764987  0.37223533  1
  O  O45  1  0.09719882  0.29204371  0.38836008  1
  H  H46  1  0.29242943  0.26372450  0.29370675  1
  C  C47  1  0.28890227  0.21534873  0.39079394  1
  O  O48  1  0.15458414  0.10061588  0.25650748  1
  C  C49  1  0.33710532  0.24743763  0.30669278  1
  C  C50  1  0.34479996  0.21621045  0.35736528  1
  O  O51  1  0.24580258  0.25032095  0.38093365  1
  C  C52  1  0.43882202  0.22480446  0.28452868  1
  C  C53  1  0.38642285  0.25439555  0.27038128  1
  O  O54  1  0.07960640  0.25149402  0.46810891  1
  O  O55  1  0.17592176  0.19772773  0.26163240  1
  O  O56  1  0.23001386  0.04100242  0.43158029  1
  C  C57  1  0.49950816  0.16450581  0.35351233  1
  H  H58  1  0.47759995  0.23624276  0.25600948  1
  O  O59  1  0.17497170  0.00181224  0.36460695  1
  C  C60  1  0.25687860  0.39655562  0.70839330  1
  C  C61  1  0.20942621  0.45020409  0.63687144  1
  H  H62  1  0.12714820  0.30716240  0.55331470  1
  C  C63  1  0.19423198  0.39148340  0.61061458  1
  C  C64  1  0.20053297  0.33644657  0.64037168  1
  C  C65  1  0.11291063  0.02261919  0.70916412  1
  C  C66  1  0.23041295  0.34114603  0.69031270  1
  C  C67  1  0.12320434  0.09763745  0.54524088  1
  O  O68  1  0.16825215  0.12555768  0.53055460  1
  C  C69  1  0.12207157  0.06900332  0.60124267  1
  H  H70  1  0.19093525  0.08853465  0.72471002  1
  H  H71  1  0.23750120  0.30238537  0.71857425  1
  C  C72  1  0.24607751  0.45219759  0.68306335  1
  C  C73  1  0.16442103  0.08316619  0.64164916  1
  H  H74  1  0.21543724  0.47844349  0.53161250  1
  H  H75  1  0.18321184  0.29186530  0.62774526  1
  H  H76  1  0.05043948  0.47672266  0.68569452  1
  C  C77  1  0.17614985  0.38983530  0.55095574  1
  H  H78  1  0.19984997  0.11464835  0.62976748  1
  C  C79  1  0.14158080  0.34436744  0.52536193  1
  C  C80  1  0.15820242  0.06611073  0.69674439  1
  O  O81  1  0.07927691  0.09135164  0.51471600  1
  C  C82  1  0.07442401  0.02896570  0.61620073  1
  C  C83  1  0.18920815  0.43993379  0.51759837  1
  H  H84  1  0.19417954  0.48859212  0.61504979  1
  H  H85  1  0.26658249  0.49600639  0.69670624  1
  H  H86  1  0.04200055  0.02126331  0.58430752  1
  C  C87  1  0.07207802  0.00300671  0.66894017  1
  C  C88  1  0.01065425  0.41224085  0.85039389  1
  O  O89  1  0.33572415  0.24271711  0.88038616  1
  Zn  Zn90  1  0.30036331  0.37511739  0.95407547  1
  Zn  Zn91  1  0.43420772  0.39876625  0.94625120  1
  O  O92  1  0.36530859  0.39595901  0.89894085  1
  C  C93  1  0.31226785  0.23880973  0.92798587  1
  O  O94  1  0.32164383  0.43899491  0.77172165  1
  O  O95  1  0.31995896  0.33965553  0.77123234  1
  Zn  Zn96  1  0.36669525  0.32417230  0.84901448  1
  O  O97  1  0.41806733  0.01964500  0.89515145  1
  O  O98  1  0.27916321  0.28030315  0.94577324  1
  C  C99  1  0.07014854  0.43664491  0.83149801  1
  C  C100  1  0.11867754  0.42812530  0.86636021  1
  O  O101  1  0.21859748  0.42238311  0.93131105  1
  O  O102  1  0.46769937  0.31009098  0.83993983  1
  C  C103  1  0.33148533  0.18193774  0.95742365  1
  H  H104  1  0.38739123  0.13766600  0.89742893  1
  C  C105  1  0.40604489  0.02437653  0.94471794  1
  C  C106  1  0.17106144  0.45810126  0.85048627  1
  C  C107  1  0.22023291  0.45666784  0.89009986  1
  Zn  Zn108  1  0.34625238  0.46831581  0.85915957  1
  C  C109  1  0.36640746  0.13392344  0.93759582  1
  C  C110  1  0.38118002  0.08298087  0.96901901  1
  H  H111  1  0.11776751  0.40148369  0.90368865  1
  O  O112  1  0.00975303  0.38518581  0.89575065  1
  H  H113  1  0.03291477  0.47682137  0.75634573  1
  O  O114  1  0.43589666  0.49641436  0.97307359  1
  C  C115  1  0.07141461  0.46905174  0.78282985  1
  C  C116  1  0.30230128  0.39094453  0.75337445  1
  C  C117  1  0.17294943  0.49495830  0.80333578  1
  H  H118  1  0.19817133  0.01650358  0.78310712  1
  O  O119  1  0.26303954  0.49332093  0.88151872  1
  H  H120  1  0.43765434  0.73957729  0.07217480  1
  C  C121  1  0.41208804  0.73516608  0.16064585  1
  C  C122  1  0.34057460  0.80991996  0.19395409  1
  H  H123  1  0.35068595  0.53891397  0.03972284  1
  H  H124  1  0.43519977  0.69228914  0.17106074  1
  C  C125  1  0.33251377  0.83101209  0.14014899  1
  H  H126  1  0.26268979  0.71036410  0.01335219  1
  C  C127  1  0.36782280  0.80396596  0.09745566  1
  O  O128  1  0.31754988  0.85312329  0.01811026  1
  C  C129  1  0.37836990  0.75950813  0.20403838  1
  C  C130  1  0.41042541  0.75691195  0.10670284  1
  H  H131  1  0.29754923  0.86596516  0.12698702  1
  C  C132  1  0.36132677  0.82550696  0.03837974  1
  C  C133  1  0.21643866  0.63464264  0.19223988  1
  C  C134  1  0.23905099  0.68796238  0.16917355  1
  H  H135  1  0.23465557  0.73461350  0.18805812  1
  C  C136  1  0.27216329  0.62466376  0.08920019  1
  C  C137  1  0.25292724  0.57064931  0.11716954  1
  O  O138  1  0.40291953  0.81572028  0.00435034  1
  C  C139  1  0.22461364  0.57606297  0.16820018  1
  C  C140  1  0.26956026  0.68028099  0.11934603  1
  C  C141  1  0.34225186  0.57994008  0.01593866  1
  C  C142  1  0.30313500  0.62282254  0.03303336  1
  H  H143  1  0.29358855  0.71778038  0.10156912  1
  H  H144  1  0.25772186  0.52406772  0.10118017  1
  H  H145  1  0.20748303  0.53634000  0.19060364  1
  H  H146  1  0.31675545  0.83225714  0.22698897  1
  C  C147  1  0.18150567  0.64010336  0.24567889  1
  Zn  Zn148  1  0.16099521  0.71715007  0.35406045  1
  H  H149  1  0.29723476  0.76016220  0.28968074  1
  C  C150  1  0.17882327  0.94320257  0.44518830  1
  O  O151  1  0.29260835  0.67566741  0.42970198  1
  Zn  Zn152  1  0.20856889  0.63483588  0.45534606  1
  C  C153  1  0.14812847  0.89196547  0.42707080  1
  H  H154  1  0.13120418  0.89000905  0.38551212  1
  O  O155  1  0.18006137  0.69103929  0.27024781  1
  Zn  Zn156  1  0.12402704  0.58208596  0.34865242  1
  C  C157  1  0.38394884  0.73327009  0.26256443  1
  O  O158  1  0.03069560  0.60204731  0.33926620  1
  C  C159  1  0.13835926  0.84467446  0.46449021  1
  O  O160  1  0.24727034  0.74475183  0.38026507  1
  Zn  Zn161  1  0.06720360  0.65529382  0.45287623  1
  C  C162  1  0.44745900  0.68901914  0.33346005  1
  C  C163  1  0.39845682  0.68434071  0.36904216  1
  H  H164  1  0.40339311  0.66248650  0.41013661  1
  C  C165  1  0.34483158  0.70665021  0.35251804  1
  C  C166  1  0.33730936  0.73793243  0.30095607  1
  O  O167  1  0.14026278  0.64506546  0.40404151  1
  C  C168  1  0.43872762  0.71372025  0.28149710  1
  C  C169  1  0.10193133  0.78882002  0.44751054  1
  O  O170  1  0.09849482  0.77893731  0.39746370  1
  C  C171  1  0.29120576  0.71194465  0.38871511  1
  C  C172  1  0.20162264  0.94485315  0.49941364  1
  C  C173  1  0.19633666  0.99968567  0.41322990  1
  O  O174  1  0.08039154  0.75127776  0.48085205  1
  O  O175  1  0.22518912  0.53571498  0.44915153  1
  H  H176  1  0.47631711  0.71815283  0.25249286  1
  O  O177  1  0.15350536  0.59532309  0.26320198  1
  O  O178  1  0.17717966  0.50186971  0.37782348  1
  C  C179  1  0.27072912  0.89798987  0.69735248  1
  H  H180  1  0.24883950  0.80371532  0.70491465  1
  C  C181  1  0.12542359  0.53606206  0.71531595  1
  C  C182  1  0.21696409  0.89796856  0.59316914  1
  C  C183  1  0.23751205  0.95519839  0.61761857  1
  H  H184  1  0.20191133  0.59488153  0.73646270  1
  C  C185  1  0.26544616  0.95380421  0.66858817  1
  C  C186  1  0.24640971  0.84272409  0.67847726  1
  H  H187  1  0.14151198  0.80731072  0.54557585  1
  C  C188  1  0.21914457  0.84398351  0.62660492  1
  O  O189  1  0.17373748  0.64532506  0.54118495  1
  H  H190  1  0.20405996  0.80070480  0.61092192  1
  H  H191  1  0.28382392  0.99603987  0.68768597  1
  O  O192  1  0.08876885  0.60139569  0.52642568  1
  C  C193  1  0.13247989  0.58086596  0.61114059  1
  C  C194  1  0.13265275  0.60980488  0.55632458  1
  C  C195  1  0.17375805  0.60347239  0.64980113  1
  C  C196  1  0.15612513  0.84744302  0.51999588  1
  C  C197  1  0.18880004  0.89955092  0.53685593  1
  H  H198  1  0.20851920  0.63354049  0.63540227  1
  C  C199  1  0.16900976  0.58148435  0.70383928  1
  H  H200  1  0.05447341  0.52242577  0.59044436  1
  H  H201  1  0.23295583  0.99708555  0.59280240  1
  H  H202  1  0.23717548  0.98112055  0.50433809  1
  C  C203  1  0.08795790  0.53590493  0.62287140  1
  C  C204  1  0.31250455  0.89333729  0.74560913  1
  H  H205  1  0.03379225  0.97199268  0.67749818  1
  C  C206  1  0.08521209  0.51008706  0.67488942  1
  C  C207  1  0.20955565  0.96156672  0.88301503  1
  H  H208  1  0.37253974  0.62839417  0.88364540  1
  Zn  Zn209  1  0.27974527  0.85413880  0.93367112  1
  O  O210  1  0.49527571  0.87197740  0.89963641  1
  O  O211  1  0.35381273  0.88248629  0.89472664  1
  O  O212  1  0.26041713  0.75891483  0.92398200  1
  C  C213  1  0.35458946  0.62781071  0.92549113  1
  Zn  Zn214  1  0.36339016  0.81662548  0.83738119  1
  O  O215  1  0.41447496  0.97982408  0.97758564  1
  C  C216  1  0.05762568  0.93804545  0.83734016  1
  C  C217  1  0.12433335  0.50089049  0.76891577  1
  C  C218  1  0.36872460  0.58368366  0.96246362  1
  C  C219  1  0.10765723  0.93291581  0.87068435  1
  O  O220  1  0.45719877  0.83634308  0.82190976  1
  O  O221  1  0.21011531  0.92060130  0.91735290  1
  H  H222  1  0.10276579  0.91012505  0.91055014  1
  Zn  Zn223  1  0.42275043  0.88872202  0.95021855  1
  C  C224  1  0.31748150  0.67604867  0.94492970  1
  O  O225  1  0.32306690  0.73761125  0.86163996  1
  C  C226  1  0.30146531  0.72550078  0.90705348  1
  C  C227  1  0.41506769  0.53760294  0.94284750  1
  Zn  Zn228  1  0.34952613  0.96077680  0.85571562  1
  C  C229  1  0.10793859  0.99676133  0.76633144  1
  C  C230  1  0.15620569  0.96420339  0.84900098  1
  O  O231  1  0.33916859  0.93606937  0.76552426  1
  O  O232  1  0.41665661  0.53056651  0.89145712  1
  O  O233  1  0.32416969  0.83768955  0.76122568  1
  C  C234  1  0.05807010  0.96456970  0.78596661  1
  C  C235  1  0.00272977  0.90803737  0.85869251  1
  H  H236  1  0.21492612  0.51593879  0.79012944  1
  O  O237  1  0.25783728  0.98809073  0.87125930  1
  O  O238  1  0.00620390  0.88140531  0.90506171  1
  C  C239  1  0.15862838  0.99477209  0.79973237  1
  C  C240  1  0.29328316  0.67448442  0.99823669  1
  H  H241  1  0.02028623  0.96346144  0.75947998  1
  C  C242  1  0.75032551  0.12116620  0.21391795  1
  C  C243  1  0.79480605  0.05940174  0.14107742  1
  C  C244  1  0.87342503  0.40493196  0.05818713  1
  C  C245  1  0.81849545  0.11783080  0.12147127  1
  C  C246  1  0.80814197  0.17465916  0.14871702  1
  H  H247  1  0.75921366  0.21835934  0.21802427  1
  C  C248  1  0.77317667  0.17609353  0.19647528  1
  C  C249  1  0.83505942  0.41356018  0.15564899  1
  H  H250  1  0.79687020  0.38929468  0.13916951  1
  C  C251  1  0.76400580  0.06400631  0.19022548  1
  H  H252  1  0.79964212  0.01497517  0.11844518  1
  C  C253  1  0.86618985  0.16896491  0.04221710  1
  H  H254  1  0.78752050  0.03235667  0.03838306  1
  C  C255  1  0.87972267  0.42493193  0.11645867  1
  O  O256  1  0.82628411  0.37787882  0.04033660  1
  H  H257  1  0.81921648  0.22059926  0.12857881  1
  H  H258  1  0.94564535  0.03117391  0.18555906  1
  H  H259  1  0.74817801  0.02356021  0.21142251  1
  H  H260  1  0.87947981  0.20688719  0.06926880  1
  C  C261  1  0.83225179  0.11803281  0.06164344  1
  C  C262  1  0.83565551  0.43663798  0.20886381  1
  C  C263  1  0.92916822  0.46017192  0.13143773  1
  H  H264  1  0.80011969  0.42986258  0.23846901  1
  O  O265  1  0.91492486  0.41532428  0.02572045  1
  C  C266  1  0.88637870  0.47350120  0.22158848  1
  C  C267  1  0.81580325  0.07033144  0.02427042  1
  H  H268  1  0.96462751  0.46964841  0.10165847  1
  C  C269  1  0.93308619  0.48337517  0.18488776  1
  H  H270  1  0.75363409  0.49887675  0.19967292  1
  Zn  Zn271  1  0.63455893  0.18179646  0.35261702  1
  C  C272  1  0.87844689  0.06145464  0.37634963  1
  O  O273  1  0.57499348  0.00484630  0.47639591  1
  O  O274  1  0.54466355  0.17755896  0.32691238  1
  O  O275  1  0.64134656  0.11228510  0.40423502  1
  C  C276  1  0.66608175  0.32046086  0.46732091  1
  Zn  Zn277  1  0.70684321  0.13141890  0.45563494  1
  C  C278  1  0.62217897  0.41482274  0.48391975  1
  Zn  Zn279  1  0.57270773  0.09777549  0.45341260  1
  O  O280  1  0.68739773  0.07127358  0.27859654  1
  O  O281  1  0.67395419  0.26591054  0.38107857  1
  O  O282  1  0.72263597  0.22843175  0.45099892  1
  C  C283  1  0.63805754  0.37135547  0.44469071  1
  O  O284  1  0.68823003  0.17123221  0.27720977  1
  C  C285  1  0.92756230  0.03013788  0.29041032  1
  H  H286  1  0.62869918  0.37368409  0.39983592  1
  O  O287  1  0.98371708  0.13498084  0.39297860  1
  C  C288  1  0.68910638  0.26907864  0.43161537  1
  H  H289  1  0.87668144  0.08150726  0.41770102  1
  C  C290  1  0.60126970  0.47202438  0.45849554  1
  O  O291  1  0.60332162  0.47679764  0.40648817  1
  Zn  Zn292  1  0.65052044  0.03530002  0.35432348  1
  C  C293  1  0.92680290  0.06026157  0.34114426  1
  O  O294  1  0.77575766  0.07108587  0.43441860  1
  C  C295  1  0.82897192  0.03044629  0.35581076  1
  C  C296  1  0.77605432  0.03237523  0.39495100  1
  H  H297  1  0.79760125  0.48507027  0.29299739  1
  C  C298  1  0.98296991  0.09579300  0.35537469  1
  C  C299  1  0.70663986  0.12044099  0.26113648  1
  O  O300  1  0.50119931  0.13548045  0.39868434  1
  H  H301  1  0.96821252  0.03064706  0.26531684  1
  O  O302  1  0.74965763  0.48628777  0.38442227  1
  O  O303  1  0.58622827  0.15087914  0.52753280  1
  H  H304  1  0.68937699  0.10682750  0.64532306  1
  C  C305  1  0.62230111  0.21230093  0.72936234  1
  H  H306  1  0.76056181  0.24937980  0.69902041  1
  C  C307  1  0.74066674  0.29580178  0.68715130  1
  C  C308  1  0.57966305  0.20767425  0.63617776  1
  H  H309  1  0.54695100  0.26802607  0.70264367  1
  C  C310  1  0.62310505  0.16538063  0.61836816  1
  C  C311  1  0.66540562  0.16726224  0.71340881  1
  C  C312  1  0.65486107  0.35492515  0.56408657  1
  C  C313  1  0.66214372  0.14474572  0.65977631  1
  H  H314  1  0.60963453  0.44162056  0.56943753  1
  C  C315  1  0.62858453  0.14435179  0.55976414  1
  C  C316  1  0.75513810  0.34956589  0.71458812  1
  C  C317  1  0.70075660  0.29467801  0.64322381  1
  H  H318  1  0.54811480  0.22578916  0.60578562  1
  C  C319  1  0.68010994  0.35157071  0.62270868  1
  C  C320  1  0.68887417  0.40698976  0.65417901  1
  H  H321  1  0.73497176  0.44490953  0.72219827  1
  C  C322  1  0.72614446  0.40351590  0.69950208  1
  H  H323  1  0.69821235  0.26964084  0.53768196  1
  O  O324  1  0.67430215  0.11982867  0.54075644  1
  C  C325  1  0.57863085  0.23231454  0.69034790  1
  H  H326  1  0.69021899  0.25345198  0.62205902  1
  H  H327  1  0.67240218  0.45108456  0.63808505  1
  C  C328  1  0.62408149  0.40634304  0.54200935  1
  C  C329  1  0.67539123  0.31121926  0.52510996  1
  H  H330  1  0.69114312  0.14109319  0.74441111  1
  C  C331  1  0.57032565  0.26433056  0.80597045  1
  O  O332  1  0.82577056  0.30624075  0.77634215  1
  O  O333  1  0.76997929  0.24253735  0.88745567  1
  Zn  Zn334  1  0.84873392  0.28311260  0.86372860  1
  C  C335  1  0.56689696  0.28917970  0.85841708  1
  C  C336  1  0.61663931  0.29098394  0.89302624  1
  H  H337  1  0.61518905  0.31289652  0.93364604  1
  C  C338  1  0.66914344  0.26447532  0.87565336  1
  O  O339  1  0.77799393  0.46599504  0.94022482  1
  O  O340  1  0.96923226  0.41466242  0.81733860  1
  O  O341  1  0.81607522  0.40555979  0.77689303  1
  O  O342  1  0.72878033  0.29930458  0.95178812  1
  O  O343  1  0.91957420  0.22553878  0.90819344  1
  C  C344  1  0.72620126  0.26841881  0.90878736  1
  Zn  Zn345  1  0.93621437  0.35522043  0.95040552  1
  H  H346  1  0.71313020  0.21216539  0.80842338  1
  Zn  Zn347  1  0.87488553  0.42111074  0.84372181  1
  O  O348  1  0.86765373  0.35786485  0.90362730  1
  Zn  Zn349  1  0.80002014  0.36855202  0.95420742  1
  C  C350  1  0.85852294  0.12546399  0.94956271  1
  H  H351  1  0.86634819  0.13152384  0.90599260  1
  C  C352  1  0.87686050  0.17087059  0.98533118  1
  C  C353  1  0.91415034  0.22436625  0.95936560  1
  C  C354  1  0.67335654  0.23556660  0.82464746  1
  C  C355  1  0.83037306  0.07255257  0.96818560  1
  C  C356  1  0.50782344  0.31420817  0.87507566  1
  C  C357  1  0.62514714  0.23940667  0.78798248  1
  H  H358  1  0.52910416  0.26015915  0.78032642  1
  O  O359  1  0.93599507  0.26363294  0.99057071  1
  C  C360  1  0.81125870  0.01586481  0.93641009  1
  O  O361  1  0.82594347  0.01419696  0.88685330  1
  O  O362  1  0.50330207  0.34081642  0.91982047  1
  C  C363  1  0.80267218  0.35444175  0.75773842  1
  O  O364  1  0.90154809  0.91443274  0.01432091  1
  H  H365  1  0.80185482  0.86365065  0.13502080  1
  C  C366  1  0.83291312  0.91949915  0.20552213  1
  C  C367  1  0.79595130  0.60740467  0.10331030  1
  C  C368  1  0.79019888  0.55157305  0.13119933  1
  C  C369  1  0.82952731  0.89979211  0.15017193  1
  C  C370  1  0.76151399  0.54557438  0.18066831  1
  C  C371  1  0.86434184  0.90167810  0.04970465  1
  H  H372  1  0.79287501  0.70606935  0.11038609  1
  C  C373  1  0.78022579  0.66188981  0.13043334  1
  C  C374  1  0.73805224  0.60181821  0.20282910  1
  H  H375  1  0.78008605  0.51921792  0.02053549  1
  C  C376  1  0.75139974  0.65872852  0.17996178  1
  C  C377  1  0.90955918  0.97119854  0.12233541  1
  H  H378  1  0.85854096  0.69648655  0.05047492  1
  H  H379  1  0.80661835  0.51176022  0.11183463  1
  C  C380  1  0.82308804  0.60657422  0.04511745  1
  C  C381  1  0.86745612  0.92444196  0.10962640  1
  O  O382  1  0.82090893  0.86821058  0.03944566  1
  C  C383  1  0.80641383  0.55982582  0.00928037  1
  H  H384  1  0.73585173  0.70189628  0.19978165  1
  C  C385  1  0.85402214  0.65831654  0.02450494  1
  C  C386  1  0.87322575  0.96954644  0.21561427  1
  H  H387  1  0.80699573  0.89613444  0.23829212  1
  H  H388  1  0.96897396  0.51534207  0.19694428  1
  H  H389  1  0.93864446  0.98781902  0.08987896  1
  C  C390  1  0.91318961  0.99538792  0.17511542  1
  Zn  Zn391  1  0.63716448  0.67150697  0.33754393  1
  Zn  Zn392  1  0.57664551  0.60670738  0.45274615  1
  Zn  Zn393  1  0.71512690  0.62097780  0.45284798  1
  H  H394  1  0.97824348  0.54464594  0.27412954  1
  O  O395  1  0.64710204  0.61225210  0.39989362  1
  C  C396  1  0.89139626  0.54828877  0.38927971  1
  O  O397  1  0.54629605  0.66849190  0.32192057  1
  O  O398  1  0.67901097  0.74893759  0.37969128  1
  O  O399  1  0.69775024  0.65086345  0.27902409  1
  O  O400  1  0.59284865  0.97554031  0.39227134  1
  O  O401  1  0.72796509  0.72113987  0.45485668  1
  C  C402  1  0.93803996  0.53788634  0.29880410  1
  O  O403  1  0.78269482  0.54969524  0.44428221  1
  C  C404  1  0.93816582  0.55839177  0.35262722  1
  C  C405  1  0.63667918  0.85758070  0.43007609  1
  H  H406  1  0.62400712  0.85280365  0.38476626  1
  C  C407  1  0.84279996  0.52261184  0.36418661  1
  C  C408  1  0.69221186  0.75422889  0.43037958  1
  C  C409  1  0.78983396  0.51966551  0.40139492  1
  C  C410  1  0.66585366  0.81052806  0.45723341  1
  H  H411  1  0.88912835  0.56722253  0.43092704  1
  H  H412  1  0.78695823  0.97807480  0.29375041  1
  C  C413  1  0.62087072  0.90883747  0.46247400  1
  Zn  Zn414  1  0.66586865  0.53612891  0.36164572  1
  C  C415  1  0.59289062  0.96483535  0.44314413  1
  O  O416  1  0.68596662  0.55250674  0.27743815  1
  O  O417  1  0.73484306  0.99768101  0.38656196  1
  O  O418  1  0.51002466  0.64311060  0.40362202  1
  O  O419  1  0.58293594  0.51653572  0.48833276  1
  C  C420  1  0.70218708  0.60045076  0.25468723  1
  C  C421  1  0.50391480  0.66401450  0.35507464  1
  C  C422  1  0.83890280  0.50222977  0.30915501  1
  C  C423  1  0.88858678  0.50550068  0.27702057  1
  C  C424  1  0.98939509  0.59068756  0.37367383  1
  O  O425  1  0.98976857  0.61003755  0.42268996  1
  C  C426  1  0.87850253  0.99736431  0.27308457  1
  C  C427  1  0.82804904  0.99824404  0.30649395  1
  C  C428  1  0.58860919  0.74481715  0.67269911  1
  H  H429  1  0.74870393  0.76235089  0.70156933  1
  C  C430  1  0.73963617  0.80628351  0.67829792  1
  C  C431  1  0.73673234  0.91782732  0.68139717  1
  H  H432  1  0.72076723  0.63853615  0.63397881  1
  C  C433  1  0.67548192  0.68290918  0.70199059  1
  C  C434  1  0.63953085  0.65568392  0.55136874  1
  C  C435  1  0.63606950  0.67725528  0.60954844  1
  C  C436  1  0.63320377  0.91042979  0.51959055  1
  O  O437  1  0.68330055  0.62435007  0.53707747  1
  C  C438  1  0.59294658  0.72109428  0.61927089  1
  H  H439  1  0.68980953  0.96759010  0.61781714  1
  C  C440  1  0.68154558  0.66217945  0.64935762  1
  H  H441  1  0.68854963  0.76434745  0.61392676  1
  H  H442  1  0.74936092  0.95835970  0.70388737  1
  C  C443  1  0.70571063  0.80847760  0.63125793  1
  C  C444  1  0.68841297  0.86514030  0.60612167  1
  C  C445  1  0.70249265  0.92210546  0.63329157  1
  H  H446  1  0.56415426  0.73573905  0.58600112  1
  C  C447  1  0.66616993  0.86210079  0.54601857  1
  C  C448  1  0.68023651  0.80985569  0.51433797  1
  C  C449  1  0.75753148  0.86201866  0.70322023  1
  H  H450  1  0.55732833  0.78132540  0.67758169  1
  C  C451  1  0.62909082  0.72563896  0.71547060  1
  H  H452  1  0.61779059  0.94500610  0.54626889  1
  H  H453  1  0.70488111  0.76983597  0.53180373  1
  O  O454  1  0.59591992  0.66732300  0.52205603  1
  H  H455  1  0.70293984  0.66738318  0.73694624  1
  O  O456  1  0.77996299  0.97510061  0.95826681  1
  H  H457  1  0.52040368  0.77526311  0.76634357  1
  C  C458  1  0.82701509  0.56280943  0.95469381  1
  O  O459  1  0.80978963  0.90766114  0.77665319  1
  C  C460  1  0.55742677  0.81282060  0.84054278  1
  C  C461  1  0.60655560  0.82800433  0.87356977  1
  H  H462  1  0.59982919  0.85540559  0.91086404  1
  C  C463  1  0.65693162  0.79703644  0.85855139  1
  C  C464  1  0.85762759  0.61287179  0.93172175  1
  O  O465  1  0.71332377  0.83117089  0.93209026  1
  Zn  Zn466  1  0.84306379  0.79692204  0.85197528  1
  O  O467  1  0.90208920  0.72605341  0.89323117  1
  O  O468  1  0.85715570  0.86305197  0.90387194  1
  C  C469  1  0.71089628  0.79267588  0.89369830  1
  O  O470  1  0.75398507  0.75916265  0.88410554  1
  C  C471  1  0.56187905  0.77887412  0.79187666  1
  Zn  Zn472  1  0.92728571  0.85154786  0.94843383  1
  Zn  Zn473  1  0.86483316  0.93487119  0.85432433  1
  O  O474  1  0.92213289  0.75301584  0.97740831  1
  C  C475  1  0.61554404  0.75570992  0.76950625  1
  H  H476  1  0.87229552  0.61601229  0.88655123  1
  C  C477  1  0.90399433  0.71594806  0.94512001  1
  Zn  Zn478  1  0.79354523  0.87544280  0.95296590  1
  C  C479  1  0.66073897  0.76210193  0.81028422  1
  C  C480  1  0.87016256  0.66078922  0.96819972  1
  H  H481  1  0.70161115  0.73555730  0.80510758  1
  O  O482  1  0.95738270  0.90840711  0.83010221  1
  O  O483  1  0.82637241  0.81057932  0.76645299  1
  O  O484  1  0.83156411  0.50514038  0.87297583  1
  C  C485  1  0.80933075  0.50878286  0.92019012  1
  C  C486  1  0.80069746  0.85875176  0.75132025  1
  C  C487  1  0.50037683  0.84384138  0.85351098  1
