# generated using pymatgen
data_CuH28C36N8ClO4
_symmetry_space_group_name_H-M   'P 1'
_cell_length_a   23.79966272
_cell_length_b   15.01404112
_cell_length_c   12.85015367
_cell_angle_alpha   90.00000000
_cell_angle_beta   90.00000000
_cell_angle_gamma   90.00000000
_symmetry_Int_Tables_number   1
_chemical_formula_structural   CuH28C36N8ClO4
_chemical_formula_sum   'Cu6 H168 C216 N48 Cl6 O24'
_cell_volume   4591.73403411
_cell_formula_units_Z   6
loop_
 _symmetry_equiv_pos_site_id
 _symmetry_equiv_pos_as_xyz
  1  'x, y, z'
loop_
 _atom_site_type_symbol
 _atom_site_label
 _atom_site_symmetry_multiplicity
 _atom_site_fract_x
 _atom_site_fract_y
 _atom_site_fract_z
 _atom_site_occupancy
  C  C0  1  0.12846225  0.08427139  0.26159089  1
  C  C1  1  0.10277446  0.13054861  0.01222952  1
  C  C2  1  0.30939342  0.15078157  0.08910624  1
  H  H3  1  0.29970080  0.04882037  0.19176020  1
  C  C4  1  0.42948920  0.13325192  0.18820280  1
  C  C5  1  0.15931811  0.11109533  0.43792909  1
  C  C6  1  0.45385400  0.05327155  0.21907521  1
  N  N7  1  0.11328029  0.07169400  0.47265182  1
  H  H8  1  0.04351828  0.01557494  0.17002891  1
  C  C9  1  0.16725219  0.11971467  0.33078332  1
  C  C10  1  0.31214250  0.16682078  0.28577309  1
  H  H11  1  0.33528238  0.10075729  0.28779892  1
  C  C12  1  0.42417086  0.20642879  0.25257447  1
  C  C13  1  0.29759098  0.20455744  0.38541984  1
  H  H14  1  0.12869853  0.09356655  0.17803529  1
  C  C15  1  0.46886972  0.05018553  0.32406424  1
  H  H16  1  0.40592934  0.12934970  0.11458960  1
  H  H17  1  0.30299604  0.16852561  0.46038956  1
  H  H18  1  0.47993407  0.12009496  0.47271814  1
  C  C19  1  0.46268382  0.12084275  0.39388997  1
  C  C20  1  0.44610140  0.20171143  0.35456874  1
  H  H21  1  0.19939081  0.17254624  0.30623604  1
  N  N22  1  0.31399243  0.06503485  0.12313540  1
  C  C23  1  0.07802069  0.02485046  0.41168741  1
  H  H24  1  0.18682719  0.14266422  0.49787725  1
  C  C25  1  0.29956375  0.20888935  0.18944512  1
  C  C26  1  0.08455671  0.03061234  0.30440922  1
  H  H27  1  0.23780856  0.01723379  0.35808700  1
  H  H28  1  0.09009472  0.20256426  0.02746144  1
  O  O29  1  0.31198656  0.18377171  0.00543257  1
  N  N30  1  0.00715940  0.07950991  0.03490848  1
  H  H31  1  0.37899774  0.15161326  0.47966854  1
  H  H32  1  0.00205810  0.24681217  0.23808335  1
  C  C33  1  0.34909245  0.01056188  0.07128124  1
  C  C34  1  0.06515290  0.05704988  0.01773965  1
  C  C35  1  0.00424000  0.12227321  0.63940410  1
  H  H36  1  0.30529194  0.00433030  0.51762302  1
  H  H37  1  0.10783249  0.06851591  0.55303810  1
  N  N38  1  0.15490949  0.11681251  0.99244824  1
  N  N39  1  0.36021023  0.15570537  0.79273553  1
  N  N40  1  0.28998780  0.05764108  0.55747496  1
  H  H41  1  0.26731804  0.21318157  0.58311080  1
  C  C42  1  0.46226789  0.18435158  0.95784581  1
  H  H43  1  0.36881299  0.08642168  0.93206969  1
  C  C44  1  0.01019502  0.20663991  0.68746584  1
  H  H45  1  0.08819481  0.15883969  0.78513956  1
  H  H46  1  0.42763834  0.22999978  0.80492761  1
  H  H47  1  0.44287950  0.23598019  0.60225510  1
  C  C48  1  0.23188480  0.19917257  0.63854339  1
  C  C49  1  0.32808034  0.10870375  0.73226033  1
  H  H50  1  0.29728939  0.07365974  0.78041720  1
  C  C51  1  0.00210671  0.21803094  0.79341491  1
  C  C52  1  0.37553691  0.14891468  0.56800031  1
  C  C53  1  0.12774680  0.16699569  0.74264933  1
  C  C54  1  0.21265650  0.11305984  0.66059189  1
  C  C55  1  0.16192662  0.09552538  0.71340579  1
  H  H56  1  0.44307804  0.12042281  0.92636493  1
  C  C57  1  0.37707124  0.02424169  0.97486788  1
  C  C58  1  0.33340751  0.09969944  0.62029971  1
  C  C59  1  0.24451450  0.03256492  0.62430385  1
  C  C60  1  0.40335321  0.19310149  0.74701498  1
  C  C61  1  0.41088082  0.19635900  0.63793812  1
  H  H62  1  0.06291906  0.20614303  0.51285858  1
  H  H63  1  0.14933468  0.02647730  0.73541642  1
  H  H64  1  0.21737061  0.03892650  0.96497788  1
  H  H65  1  0.17988836  0.24049046  0.93012441  1
  C  C66  1  0.17175280  0.03262434  0.98289289  1
  H  H67  1  0.41328338  0.01759155  0.71038539  1
  C  C68  1  0.12019186  0.46854887  0.34834427  1
  H  H69  1  0.49082508  0.43270654  0.18165528  1
  H  H70  1  0.27741876  0.32926659  0.11321142  1
  C  C71  1  0.28337104  0.29675011  0.18965029  1
  C  C72  1  0.45532297  0.33323014  0.02780819  1
  N  N73  1  0.41439260  0.34174189  0.40964489  1
  C  C74  1  0.27565628  0.34367282  0.28784429  1
  H  H75  1  0.26960691  0.33180438  0.45695654  1
  C  C76  1  0.45412363  0.28064739  0.43433875  1
  H  H77  1  0.39284908  0.33228143  0.34227098  1
  C  C78  1  0.42043566  0.40353864  0.07951181  1
  N  N79  1  0.13179181  0.38567733  0.32443301  1
  C  C80  1  0.28107457  0.29437160  0.38168644  1
  C  C81  1  0.07320619  0.34009863  0.47575503  1
  N  N82  1  0.45194815  0.45293892  0.15512275  1
  C  C83  1  0.10673486  0.32736835  0.38350190  1
  C  C84  1  0.25946054  0.43953283  0.29066632  1
  O  O85  1  0.37192850  0.40391767  0.06134092  1
  H  H86  1  0.12332745  0.26210878  0.35715556  1
  C  C87  1  0.37222207  0.48699802  0.41302826  1
  H  H88  1  0.03447425  0.40071751  0.28156488  1
  C  C89  1  0.40472029  0.41800017  0.46407088  1
  H  H90  1  0.12930335  0.45459557  0.09142714  1
  H  H91  1  0.25925361  0.48530037  0.21433035  1
  O  O92  1  0.24989141  0.49595171  0.35577811  1
  H  H93  1  0.40526122  0.26819070  0.22402059  1
  H  H94  1  0.35028934  0.47770025  0.33899349  1
  C  C95  1  0.16495497  0.42061296  0.05109230  1
  C  C96  1  0.21741861  0.46821625  0.02450593  1
  C  C97  1  0.15012850  0.25391730  0.72670967  1
  O  O98  1  0.26615238  0.36980586  0.60581496  1
  C  C99  1  0.22311614  0.35998963  0.65170119  1
  N  N100  1  0.18268972  0.42146694  0.69724853  1
  N  N101  1  0.05180015  0.27069985  0.53279697  1
  H  H102  1  0.44585111  0.39202254  0.61084584  1
  H  H103  1  0.30126491  0.46752578  0.95362171  1
  C  C104  1  0.19558380  0.30844113  0.95303425  1
  O  O105  1  0.01395116  0.35835336  0.66725070  1
  H  H106  1  0.05750402  0.44991863  0.58975067  1
  H  H107  1  0.15428152  0.41165348  0.75949316  1
  C  C108  1  0.42459511  0.44548118  0.56910187  1
  C  C109  1  0.25156832  0.34078711  0.93817632  1
  H  H110  1  0.28270917  0.29768926  0.89956845  1
  H  H111  1  0.12284111  0.30284991  0.76357873  1
  C  C112  1  0.02340398  0.28879287  0.62138855  1
  C  C113  1  0.26175493  0.42965754  0.96364564  1
  H  H114  1  0.00697105  0.28188259  0.83081415  1
  C  C115  1  0.20105109  0.27091404  0.66999092  1
  N  N116  1  0.15072198  0.35183190  0.99655879  1
  O  O117  1  0.48721702  0.27482821  0.50277027  1
  C  C118  1  0.42784659  0.25850405  0.98164971  1
  H  H119  1  0.37994059  0.25693849  0.97574065  1
  C  C120  1  0.06759944  0.43272643  0.50610297  1
  O  O121  1  0.14431457  0.57870516  0.15920919  1
  C  C122  1  0.37741045  0.69137190  0.21077642  1
  N  N123  1  0.22667538  0.55476157  0.05913013  1
  C  C124  1  0.18297866  0.59997752  0.10256424  1
  H  H125  1  0.45905276  0.74395586  0.24794782  1
  C  C126  1  0.01833053  0.66671873  0.28229036  1
  C  C127  1  0.42320285  0.53283105  0.17885445  1
  H  H128  1  0.18853147  0.73038621  0.23502214  1
  H  H129  1  0.42590795  0.65597908  0.02715728  1
  N  N130  1  0.34035741  0.62914878  0.18258825  1
  C  C131  1  0.20329532  0.69465617  0.07542117  1
  H  H132  1  0.09292514  0.66225656  0.12851172  1
  H  H133  1  0.05785898  0.66980619  0.32334425  1
  C  C134  1  0.36348371  0.55002246  0.17242133  1
  O  O135  1  0.18448164  0.69602137  0.40437694  1
  C  C136  1  0.43473679  0.68393912  0.23938181  1
  N  N137  1  0.05586720  0.69604555  0.10552509  1
  C  C138  1  0.01002589  0.68126013  0.17191141  1
  C  C139  1  0.08714911  0.50050689  0.43760312  1
  C  C140  1  0.46007245  0.60134452  0.21738598  1
  H  H141  1  0.25949568  0.59301981  0.02660204  1
  H  H142  1  0.27072226  0.72342777  0.38910786  1
  H  H143  1  0.34975417  0.62519507  0.41849749  1
  C  C144  1  0.37182266  0.57061035  0.45652822  1
  H  H145  1  0.13814463  0.51753961  0.28783317  1
  H  H146  1  0.07833431  0.57030723  0.45943354  1
  H  H147  1  0.33055538  0.50560665  0.14575078  1
  C  C148  1  0.06668549  0.74751780  0.49372178  1
  C  C149  1  0.17196804  0.66130832  0.70165943  1
  H  H150  1  0.42787449  0.50751486  0.92066291  1
  Cl  Cl151  1  0.01743646  0.59843574  0.59683900  1
  C  C152  1  0.16183425  0.57235172  0.72667901  1
  C  C153  1  0.23880878  0.53977441  0.60188060  1
  C  C154  1  0.21470184  0.68205998  0.62743810  1
  H  H155  1  0.22864791  0.67624607  0.91759748  1
  O  O156  1  0.05947828  0.64798696  0.93129228  1
  C  C157  1  0.32198025  0.59968398  0.80228314  1
  H  H158  1  0.12861051  0.55263424  0.78145089  1
  C  C159  1  0.22650291  0.72325602  0.98098523  1
  N  N160  1  0.24571752  0.62164483  0.57396847  1
  C  C161  1  0.39646719  0.64330808  0.95976503  1
  C  C162  1  0.31861763  0.68740217  0.85128623  1
  C  C163  1  0.40274789  0.58893439  0.55107565  1
  H  H164  1  0.29816143  0.57216571  0.73643994  1
  H  H165  1  0.14514662  0.71525022  0.73588252  1
  N  N166  1  0.36165003  0.54465638  0.83251580  1
  H  H167  1  0.40917984  0.65297656  0.58892655  1
  C  C168  1  0.39931819  0.56419273  0.90299489  1
  C  C169  1  0.19464770  0.51111650  0.66894387  1
  N  N170  1  0.42704449  0.52586185  0.60784060  1
  C  C171  1  0.35564045  0.70618673  0.93381451  1
  H  H172  1  0.08536915  0.69675803  0.54901337  1
  C  C173  1  0.04164825  0.69533052  0.99791533  1
  H  H174  1  0.26817747  0.50006848  0.55377998  1
  H  H175  1  0.22001979  0.74682597  0.58985095  1
  C  C176  1  0.07800153  0.84549252  0.34342249  1
  C  C177  1  0.33972550  0.82047714  0.36002344  1
  C  C178  1  0.22463142  0.84422736  0.15096853  1
  H  H179  1  0.16238359  0.90904026  0.41577504  1
  C  C180  1  0.24518451  0.86460518  0.37392273  1
  N  N181  1  0.18902050  0.85476903  0.40674157  1
  C  C182  1  0.41951993  0.88292681  0.02192240  1
  C  C183  1  0.16500610  0.76916104  0.40833896  1
  C  C184  1  0.26455372  0.95495333  0.36249685  1
  N  N185  1  0.40695923  0.85478877  0.11085866  1
  C  C186  1  0.35370540  0.91010485  0.34507555  1
  H  H187  1  0.39619366  0.93655658  0.33646022  1
  C  C188  1  0.28430307  0.79239672  0.37376858  1
  H  H189  1  0.45712450  0.99544911  0.16656706  1
  H  H190  1  0.34524405  0.88712920  0.17680351  1
  C  C191  1  0.25056359  0.86703741  0.05546742  1
  C  C192  1  0.37003046  0.92123783  0.11387806  1
  H  H193  1  0.22288827  0.89448949  0.21764482  1
  H  H194  1  0.26971997  0.92883577  0.04960073  1
  H  H195  1  0.10616787  0.87975101  0.28627716  1
  C  C196  1  0.10204316  0.78756661  0.41755558  1
  N  N197  1  0.31774191  0.97794367  0.35360546  1
  O  O198  1  0.48975334  0.88837386  0.33311285  1
  C  C199  1  0.02148129  0.87288244  0.35182719  1
  C  C200  1  0.49278565  0.96208201  0.36639762  1
  H  H201  1  0.04390701  0.98843595  0.45487049  1
  N  N202  1  0.04503845  0.97770822  0.24003721  1
  H  H203  1  0.35037959  0.75069405  0.21420211  1
  C  C204  1  0.20264061  0.75732367  0.15854466  1
  H  H205  1  0.37580971  0.76818852  0.35861010  1
  C  C206  1  0.25192334  0.80554137  0.97048932  1
  C  C207  1  0.00106189  0.76659952  0.96658754  1
  H  H208  1  0.47693025  0.77944015  0.76776581  1
  C  C209  1  0.46221696  0.90142828  0.64695892  1
  C  C210  1  0.41572320  0.95467079  0.95225392  1
  H  H211  1  0.32252822  0.94586103  0.66904888  1
  O  O212  1  0.29284853  0.90837064  0.85822091  1
  N  N213  1  0.40486252  0.78986869  0.55373980  1
  C  C214  1  0.13922348  0.95502115  0.97602374  1
  C  C215  1  0.45240442  0.82558345  0.58161134  1
  C  C216  1  0.41343306  0.94966135  0.67754530  1
  C  C217  1  0.08132615  0.96882698  0.99158892  1
  H  H218  1  0.28409265  0.76418670  0.72584613  1
  C  C219  1  0.36208456  0.90911210  0.65377476  1
  C  C220  1  0.27861047  0.83427374  0.87204252  1
  C  C221  1  0.36005191  0.83067846  0.59350665  1
  N  N222  1  0.28292900  0.75552786  0.80846034  1
  O  O223  1  0.22710886  0.96110866  0.64760921  1
  C  C224  1  0.00790544  0.77264601  0.50212665  1
  H  H225  1  0.43687015  0.95448136  0.87541549  1
  H  H226  1  0.15802230  0.89169330  0.94905147  1
  H  H227  1  0.35010371  0.76818316  0.98302489  1
  H  H228  1  0.48382826  0.78211059  0.54027632  1
  H  H229  1  0.05303619  0.91282739  0.99699965  1
  H  H230  1  0.32407584  0.79692868  0.56091546  1
  C  C231  1  0.64976866  0.15180857  0.34733059  1
  H  H232  1  0.68539919  0.19268992  0.31029879  1
  N  N233  1  0.90107552  0.21215739  0.14406467  1
  N  N234  1  0.62958907  0.09373590  0.28037680  1
  Cl  Cl235  1  0.93960656  0.15045184  0.40917226  1
  C  C236  1  0.58827885  0.04864132  0.32207257  1
  C  C237  1  0.63136477  0.17366701  0.44903299  1
  Cu  Cu238  1  0.93146033  0.11573043  0.22262201  1
  H  H239  1  0.91488299  0.19513220  0.06937827  1
  Cu  Cu240  1  0.82296603  0.17800760  0.13224054  1
  Cl  Cl241  1  0.84494081  0.06695070  0.23433499  1
  Cu  Cu242  1  0.65242741  0.06137032  0.13181133  1
  Cu  Cu243  1  0.75712864  0.01737904  0.25037663  1
  Cl  Cl244  1  0.73079639  0.12017913  0.12789917  1
  C  C245  1  0.56586844  0.05699569  0.42458713  1
  H  H246  1  0.59762701  0.21674562  0.19247632  1
  H  H247  1  0.54207662  0.23666993  0.35251690  1
  O  O248  1  0.98790650  0.23340093  0.01284773  1
  C  C249  1  0.58902187  0.11949561  0.49305811  1
  H  H250  1  0.64963020  0.23376716  0.48908317  1
  H  H251  1  0.84720630  0.09907487  0.46021322  1
  C  C252  1  0.69967875  0.05761885  0.69692538  1
  H  H253  1  0.90569912  0.20794202  0.57827188  1
  C  C254  1  0.51972147  0.18764261  0.96481792  1
  C  C255  1  0.70396143  0.09038831  0.80161791  1
  C  C256  1  0.82518205  0.01243266  0.59480699  1
  C  C257  1  0.99670282  0.14220361  0.85940480  1
  H  H258  1  0.57298874  0.12785586  0.57245573  1
  C  C259  1  0.71205502  0.12390049  0.61918113  1
  O  O260  1  0.63644014  0.20281411  0.98696584  1
  N  N261  1  0.71046121  0.17020782  0.84088301  1
  C  C262  1  0.84464853  0.06841067  0.87733337  1
  C  C263  1  0.72355918  0.20915855  0.65369863  1
  H  H264  1  0.69863242  0.04681158  0.87129885  1
  H  H265  1  0.71257273  0.10793423  0.53604632  1
  C  C266  1  0.85369355  0.08834909  0.54550855  1
  C  C267  1  0.88011732  0.15329393  0.61174137  1
  H  H268  1  0.90131210  0.19019654  0.77484870  1
  C  C269  1  0.87848640  0.14531948  0.72186416  1
  C  C270  1  0.81715459  0.01221258  0.70222980  1
  C  C271  1  0.84584708  0.07695635  0.76294568  1
  C  C272  1  0.72066571  0.22626851  0.76151760  1
  O  O273  1  0.86704829  0.11087183  0.94136157  1
  H  H274  1  0.54499250  0.12958115  0.94597080  1
  H  H275  1  0.97665571  0.04225938  0.99052857  1
  Cu  Cu276  1  0.71361538  0.19812455  0.99398852  1
  C  C277  1  0.99370043  0.16019906  0.97932301  1
  C  C278  1  0.99962922  0.04858328  0.70609320  1
  C  C279  1  0.99857255  0.05578968  0.81533212  1
  O  O280  1  0.51306550  0.03674769  0.80546023  1
  H  H281  1  0.99971227  0.11438732  0.55369803  1
  H  H282  1  0.83044561  0.24835969  0.92660385  1
  H  H283  1  0.52464737  0.40706958  0.40833468  1
  C  C284  1  0.76627321  0.35580679  0.09376685  1
  C  C285  1  0.59047021  0.28304063  0.21549416  1
  H  H286  1  0.75508044  0.34072698  0.17922863  1
  C  C287  1  0.85055670  0.32423356  0.43745174  1
  C  C288  1  0.74932393  0.33339472  0.37827229  1
  H  H289  1  0.85947723  0.29061155  0.36493867  1
  C  C290  1  0.79426248  0.36034848  0.45427754  1
  C  C291  1  0.59466576  0.44583664  0.19967993  1
  C  C292  1  0.95858732  0.46302909  0.21241754  1
  H  H293  1  0.53590687  0.40241656  0.04575556  1
  C  C294  1  0.97531809  0.30415634  0.22263444  1
  C  C295  1  0.92188374  0.29872010  0.17074032  1
  N  N296  1  0.90980996  0.45642272  0.16080059  1
  C  C297  1  0.72148742  0.47295845  0.31553069  1
  H  H298  1  0.81487162  0.44359849  0.28034661  1
  C  C299  1  0.60394526  0.36068451  0.15737255  1
  C  C300  1  0.89558806  0.37766421  0.13112768  1
  H  H301  1  0.66702180  0.38521804  0.36242228  1
  H  H302  1  0.58655869  0.49207618  0.49577830  1
  H  H303  1  0.85572801  0.38063632  0.08405570  1
  N  N304  1  0.70670330  0.39989057  0.38552963  1
  C  C305  1  0.54836087  0.38255559  0.33983731  1
  N  N306  1  0.56711759  0.45377281  0.28744565  1
  C  C307  1  0.75313442  0.43938491  0.04455589  1
  H  H308  1  0.67053750  0.35469199  0.06438159  1
  N  N309  1  0.79698895  0.28975804  0.05697311  1
  C  C310  1  0.51353381  0.33924860  0.02459330  1
  N  N311  1  0.62662332  0.34821636  0.05080572  1
  O  O312  1  0.75459642  0.27171922  0.32050092  1
  C  C313  1  0.55864460  0.29399108  0.30722263  1
  C  C314  1  0.99305244  0.39035714  0.24399640  1
  H  H315  1  0.72939808  0.49422086  0.08841307  1
  C  C316  1  0.60780544  0.26849488  0.01289299  1
  C  C317  1  0.77691555  0.48794436  0.28004287  1
  H  H318  1  0.93353006  0.32150843  0.50613440  1
  C  C319  1  0.90614869  0.49161513  0.91963477  1
  C  C320  1  0.76486726  0.45062106  0.93806100  1
  C  C321  1  0.58240254  0.36537845  0.62050924  1
  H  H322  1  0.72839504  0.29114339  0.79547312  1
  C  C323  1  0.65038194  0.46208977  0.71939011  1
  H  H324  1  0.83057828  0.33800309  0.74557823  1
  C  C325  1  0.87402253  0.39331420  0.60722606  1
  H  H326  1  0.73217889  0.42725866  0.55094151  1
  C  C327  1  0.77602768  0.40951176  0.54072362  1
  C  C328  1  0.81885239  0.42037457  0.61670384  1
  N  N329  1  0.81075714  0.38555675  0.78899023  1
  H  H330  1  0.90218825  0.40187420  0.67680730  1
  C  C331  1  0.79404630  0.37893780  0.88728814  1
  C  C332  1  0.80027544  0.45603028  0.72466795  1
  C  C333  1  0.62009546  0.44522115  0.62049151  1
  H  H334  1  0.60588068  0.25903410  0.83184963  1
  C  C335  1  0.80798356  0.30529542  0.95915215  1
  C  C336  1  0.64704885  0.39489311  0.79088009  1
  H  H337  1  0.66554918  0.39953890  0.86768708  1
  H  H338  1  0.90764417  0.42631182  0.95905064  1
  C  C339  1  0.89148021  0.34646935  0.51287540  1
  N  N340  1  0.58112877  0.30205787  0.69006962  1
  C  C341  1  0.61328702  0.31676235  0.77166029  1
  H  H342  1  0.73334747  0.26292987  0.59935428  1
  N  N343  1  0.93558159  0.48225134  0.82992410  1
  H  H344  1  0.55067110  0.34196268  0.56300333  1
  C  C345  1  0.54586145  0.26465132  0.99908468  1
  H  H346  1  0.67350548  0.66289263  0.19136979  1
  H  H347  1  0.94129845  0.69799443  0.05489446  1
  C  C348  1  0.97100896  0.64720666  0.33817273  1
  H  H349  1  0.77398339  0.65123423  0.11708955  1
  H  H350  1  0.96670898  0.53445652  0.21465273  1
  C  C351  1  0.91575308  0.64933331  0.29106898  1
  N  N352  1  0.90709164  0.67526902  0.19298223  1
  C  C353  1  0.68360891  0.54245961  0.28466575  1
  C  C354  1  0.57519982  0.72730709  0.45567378  1
  N  N355  1  0.79496287  0.55218115  0.21478727  1
  H  H356  1  0.57523185  0.68406541  0.03237524  1
  C  C357  1  0.70030812  0.60650498  0.21259310  1
  H  H358  1  0.87653052  0.64336484  0.33315194  1
  C  C359  1  0.75713422  0.60648483  0.17752506  1
  O  O360  1  0.54310884  0.67076940  0.43705258  1
  H  H361  1  0.76454076  0.68905502  0.32221795  1
  C  C362  1  0.95410654  0.68694905  0.13594616  1
  H  H363  1  0.86696268  0.57065405  0.04014949  1
  H  H364  1  0.66766334  0.67687932  0.41264747  1
  N  N365  1  0.85163850  0.65934994  0.48945485  1
  H  H366  1  0.63841414  0.55654327  0.30478817  1
  H  H367  1  0.82643607  0.54105163  0.48304863  1
  C  C368  1  0.68173829  0.73826179  0.37352437  1
  H  H369  1  0.96958124  0.63257004  0.42169331  1
  C  C370  1  0.73457023  0.74843899  0.33030877  1
  H  H371  1  0.60443884  0.50902990  0.16311628  1
  C  C372  1  0.67638746  0.68652905  0.00246582  1
  H  H373  1  0.50525802  0.59235292  0.22519766  1
  C  C374  1  0.80778234  0.60554162  0.49611569  1
  C  C375  1  0.88503103  0.57139664  0.96091946  1
  H  H376  1  0.77167672  0.67826812  0.82319200  1
  H  H377  1  0.67488293  0.52428830  0.72853167  1
  C  C378  1  0.61652482  0.68103243  0.72894635  1
  N  N379  1  0.70940025  0.65683928  0.92762543  1
  C  C380  1  0.74410046  0.72206721  0.54840962  1
  H  H381  1  0.57259909  0.61323641  0.60895609  1
  C  C382  1  0.75235391  0.63275461  0.52324463  1
  C  C383  1  0.88144975  0.64762980  0.89744081  1
  H  H384  1  0.94395237  0.52647782  0.68331646  1
  C  C385  1  0.75154971  0.70762917  0.89152026  1
  C  C386  1  0.90023586  0.63218839  0.79353912  1
  H  H387  1  0.87428559  0.67292275  0.65981456  1
  H  H388  1  0.71944712  0.58225255  0.52951398  1
  N  N389  1  0.89697882  0.69821273  0.71243011  1
  H  H390  1  0.86343351  0.71305705  0.92781544  1
  C  C391  1  0.52692091  0.71925400  0.90086725  1
  C  C392  1  0.59217607  0.67602217  0.62973100  1
  H  H393  1  0.61342624  0.62369668  0.78599999  1
  O  O394  1  0.77577560  0.52455583  0.74186629  1
  C  C395  1  0.59885232  0.74832179  0.56346897  1
  C  C396  1  0.92627758  0.54942858  0.76378507  1
  H  H397  1  0.74841617  0.50943019  0.89247960  1
  Cl  Cl398  1  0.63855457  0.56250067  0.99111980  1
  N  N399  1  0.61343502  0.50925217  0.54986149  1
  H  H400  1  0.98939552  0.69836921  0.82073393  1
  H  H401  1  0.52289502  0.64857481  0.87038040  1
  C  C402  1  0.56152408  0.74143046  0.98527676  1
  C  C403  1  0.84283008  0.74557320  0.50206326  1
  O  O404  1  0.81146936  0.95114551  0.42857527  1
  C  C405  1  0.67435341  0.89333675  0.33766546  1
  N  N406  1  0.72198402  0.90784208  0.29229258  1
  N  N407  1  0.64359593  0.79761968  0.13260671  1
  H  H408  1  0.66696158  0.81324254  0.19493773  1
  C  C409  1  0.64773638  0.81184186  0.37458657  1
  H  H410  1  0.78647504  0.85215144  0.23879559  1
  C  C411  1  0.75018762  0.83142141  0.28536288  1
  O  O412  1  0.94753870  0.95569870  0.26255065  1
  N  N413  1  0.51942803  0.99970688  0.45445502  1
  Cu  Cu414  1  0.87808209  0.95671707  0.33879300  1
  N  N415  1  0.58854750  0.80518153  0.39701303  1
  H  H416  1  0.88243352  0.78190915  0.49511942  1
  H  H417  1  0.91907602  0.93422268  0.07605054  1
  C  C418  1  0.99789485  0.93822608  0.27890550  1
  H  H419  1  0.73225624  0.89529950  0.04862482  1
  H  H420  1  0.66081094  0.96237169  0.34411266  1
  O  O421  1  0.60610728  0.94226647  0.14089905  1
  C  C422  1  0.98329226  0.83151554  0.03676365  1
  H  H423  1  0.55767406  0.83082020  0.34680124  1
  C  C424  1  0.60866805  0.86618684  0.10175130  1
  C  C425  1  0.68206115  0.76992321  0.04667411  1
  C  C426  1  0.98756945  0.83667772  0.43401277  1
  Cl  Cl427  1  0.80549295  0.99232686  0.00013288  1
  H  H428  1  0.99708614  0.83512449  0.11565588  1
  C  C429  1  0.93858196  0.88912084  0.01248012  1
  H  H430  1  0.94655759  0.86951921  0.44731066  1
  C  C431  1  0.57497187  0.83246133  0.01366206  1
  C  C432  1  0.72621725  0.82778175  0.01363820  1
  H  H433  1  0.57475603  0.99436754  0.26848597  1
  H  H434  1  0.68569134  0.94913045  0.59221336  1
  C  C435  1  0.64510807  0.83449453  0.70045496  1
  H  H436  1  0.78670405  0.86564580  0.66153630  1
  C  C437  1  0.64259373  0.75725971  0.76204171  1
  H  H438  1  0.54533542  0.87254454  0.69101032  1
  C  C439  1  0.55761248  0.89928717  0.94194714  1
  C  C440  1  0.62179336  0.82834188  0.59963010  1
  O  O441  1  0.84856546  0.82672603  0.73845215  1
  N  N442  1  0.51955471  0.92792045  0.67495867  1
  C  C443  1  0.92822428  0.80563492  0.84289809  1
  H  H444  1  0.62303868  0.88393695  0.54436831  1
  C  C445  1  0.80855166  0.94085064  0.52359738  1
  C  C446  1  0.52637000  0.87872503  0.85417053  1
  C  C447  1  0.67168783  0.91244501  0.74927177  1
  H  H448  1  0.53330526  0.95826885  0.51520966  1
  O  O449  1  0.68184922  0.92190596  0.83901427  1
  H  H450  1  0.79069066  0.84108735  0.89358259  1
  H  H451  1  0.99722780  0.99617419  0.86355242  1
  C  C452  1  0.51828409  0.96120566  0.77873000  1
  C  C453  1  0.91159994  0.87693948  0.91469013  1
  N  N454  1  0.78722151  0.86979331  0.57864809  1
  C  C455  1  0.79127030  0.78037381  0.53499417  1
  H  H456  1  0.78752361  0.96414324  0.74220377  1
  H  H457  1  0.87858587  0.92296381  0.88952594  1
  H  H458  1  0.65707174  0.75831835  0.84511655  1
  C  C459  1  0.88934858  0.78207526  0.75341453  1
  C  C460  1  0.75961215  0.79602098  0.92774690  1
  H  H461  1  0.57560100  0.96631315  0.94779914  1
  N  N462  1  0.68306322  0.97413840  0.66547180  1
  H  H463  1  0.98501109  0.75476513  0.57493218  1
  C  C464  1  0.50681133  0.78997822  0.83438551  1
  H  H465  1  0.99973230  0.98123836  0.67307292  1
  H  H466  1  0.70310756  0.75038735  0.56854917  1
  C  C467  1  0.97397421  0.75589786  0.87012741  1
