# generated using pymatgen
data_Zn3H32C52(NO6)2
_symmetry_space_group_name_H-M   'P 1'
_cell_length_a   14.36965819
_cell_length_b   12.25496274
_cell_length_c   24.04843474
_cell_angle_alpha   90.00000000
_cell_angle_beta   90.00000000
_cell_angle_gamma   90.00000000
_symmetry_Int_Tables_number   1
_chemical_formula_structural   Zn3H32C52(NO6)2
_chemical_formula_sum   'Zn12 H128 C208 N8 O48'
_cell_volume   4234.92035763
_cell_formula_units_Z   4
loop_
 _symmetry_equiv_pos_site_id
 _symmetry_equiv_pos_as_xyz
  1  'x, y, z'
loop_
 _atom_site_type_symbol
 _atom_site_label
 _atom_site_symmetry_multiplicity
 _atom_site_fract_x
 _atom_site_fract_y
 _atom_site_fract_z
 _atom_site_occupancy
  O  O0  1  0.11601826  0.01909168  0.18780139  1
  H  H1  1  0.16786564  0.10517786  0.00536752  1
  O  O2  1  0.21737223  0.42738520  0.14100089  1
  O  O3  1  0.03874631  0.45033549  0.24621581  1
  Zn  Zn4  1  0.24645920  0.27171375  0.18692368  1
  C  C5  1  0.44142180  0.14070196  0.01950937  1
  C  C6  1  0.28314322  0.15380794  0.05889738  1
  C  C7  1  0.38021832  0.16575741  0.06421698  1
  C  C8  1  0.40029418  0.44178731  0.12292399  1
  H  H9  1  0.23446729  0.16184289  0.09305177  1
  C  C10  1  0.41960891  0.19286741  0.12093755  1
  H  H11  1  0.41080882  0.32209252  0.21267876  1
  O  O12  1  0.11721861  0.19621997  0.17292313  1
  O  O13  1  0.36018274  0.19691355  0.16122209  1
  H  H14  1  0.32312516  0.01378046  0.21353848  1
  C  C15  1  0.24366691  0.11828866  0.00799844  1
  H  H16  1  0.36912129  0.36287851  0.10967099  1
  C  C17  1  0.09898754  0.09731611  0.15832293  1
  C  C18  1  0.05126171  0.18347600  0.07170364  1
  C  C19  1  0.05264497  0.08713415  0.10095269  1
  H  H20  1  0.08667124  0.25829267  0.08724627  1
  C  C21  1  0.49648105  0.45029051  0.11930515  1
  C  C22  1  0.00892394  0.17894770  0.01721871  1
  H  H23  1  0.47451084  0.13498694  0.47772103  1
  C  C24  1  0.40399297  0.37057819  0.30249727  1
  Zn  Zn25  1  0.15583348  0.48990441  0.36610983  1
  Zn  Zn26  1  0.28686664  0.17504113  0.44153744  1
  O  O27  1  0.26195021  0.35686998  0.35751299  1
  C  C28  1  0.40028300  0.08828835  0.29065679  1
  H  H29  1  0.14737136  0.18306059  0.36309352  1
  O  O30  1  0.25850483  0.34047398  0.26617854  1
  H  H31  1  0.41039308  0.40804997  0.38990971  1
  C  C32  1  0.37243502  0.13237795  0.34406177  1
  C  C33  1  0.30335877  0.35683400  0.31140287  1
  C  C34  1  0.09733938  0.23977367  0.49180410  1
  C  C35  1  0.09930204  0.20214480  0.39799260  1
  O  O36  1  0.04624342  0.40584163  0.33165999  1
  H  H37  1  0.42467639  0.19055375  0.36305240  1
  N  N38  1  0.14425024  0.21197581  0.44685924  1
  C  C39  1  0.28455336  0.09856784  0.36600659  1
  C  C40  1  0.32607678  0.03688638  0.26000536  1
  C  C41  1  0.45251636  0.39588014  0.35235335  1
  N  N42  1  0.22652162  0.02466094  0.34597988  1
  H  H43  1  0.01457038  0.05378557  0.47592391  1
  C  C44  1  0.24555170  0.01411376  0.29147076  1
  C  C45  1  0.49780784  0.08146567  0.26483268  1
  C  C46  1  0.00281476  0.21294258  0.39184043  1
  C  C47  1  0.00063592  0.24550841  0.49186461  1
  C  C48  1  0.44865176  0.35386024  0.25168393  1
  O  O49  1  0.18036005  0.14233473  0.60310689  1
  O  O50  1  0.13243851  0.41179826  0.60624750  1
  H  H51  1  0.48021366  0.44238711  0.69035374  1
  O  O52  1  0.38540917  0.10362687  0.68011874  1
  H  H53  1  0.41920827  0.25569613  0.73147371  1
  C  C54  1  0.39933486  0.34513589  0.58614508  1
  H  H55  1  0.36874052  0.40392054  0.61833595  1
  C  C56  1  0.34025011  0.29857962  0.54608998  1
  Zn  Zn57  1  0.24623350  0.13283761  0.68032374  1
  C  C58  1  0.01861855  0.07358639  0.60149102  1
  C  C59  1  0.12425100  0.06974669  0.58653910  1
  H  H60  1  0.26721785  0.33119618  0.54236623  1
  H  H61  1  0.14584124  0.25005773  0.52732600  1
  C  C62  1  0.05025474  0.41113187  0.61292053  1
  C  C63  1  0.42523865  0.02032783  0.65922332  1
  C  C64  1  0.49729043  0.32637221  0.58607202  1
  H  H65  1  0.01915254  0.23399897  0.63391091  1
  O  O66  1  0.23756224  0.25844082  0.74646540  1
  C  C67  1  0.45782115  0.19655889  0.51113141  1
  N  N68  1  0.36949494  0.22949543  0.50816020  1
  H  H69  1  0.42136760  0.49397136  0.53647542  1
  C  C70  1  0.35480909  0.31323218  0.80967051  1
  C  C71  1  0.18001246  0.02452308  0.80550154  1
  C  C72  1  0.25660689  0.28855262  0.79465535  1
  C  C73  1  0.37202156  0.35561648  0.86408697  1
  C  C74  1  0.42859621  0.29166015  0.77290624  1
  Zn  Zn75  1  0.12442086  0.43547353  0.86317850  1
  C  C76  1  0.25501155  0.07814414  0.90876100  1
  H  H77  1  0.47360142  0.40533903  0.92331351  1
  O  O78  1  0.19639889  0.29458099  0.83107370  1
  H  H79  1  0.31379938  0.37613304  0.89138322  1
  C  C80  1  0.40292494  0.11084946  0.96900299  1
  H  H81  1  0.44914536  0.07889549  0.93383581  1
  C  C82  1  0.30445772  0.10410656  0.96175523  1
  C  C83  1  0.31254105  0.08843958  0.86053282  1
  H  H84  1  0.38233086  0.12609005  0.85909701  1
  C  C85  1  0.27668812  0.05262004  0.80863179  1
  C  C86  1  0.46088416  0.37636454  0.88092053  1
  H  H87  1  0.32102804  0.05023869  0.77222668  1
  C  C88  1  0.16018263  0.03837495  0.90718576  1
  H  H89  1  0.30183177  0.48579475  0.78536272  1
  C  C90  1  0.12393368  0.01879731  0.85383495  1
  H  H91  1  0.04141782  0.19785608  0.90973192  1
  H  H92  1  0.11572912  0.03110578  0.94488259  1
  H  H93  1  0.00243762  0.25145709  0.98849368  1
  H  H94  1  0.33950542  0.54373376  0.04734342  1
  Zn  Zn95  1  0.08159914  0.62568492  0.22266096  1
  O  O96  1  0.19895252  0.59887839  0.16561250  1
  C  C97  1  0.36889049  0.57802088  0.00913548  1
  H  H98  1  0.35753926  0.68893299  0.18704743  1
  C  C99  1  0.39850459  0.62182652  0.16924111  1
  C  C100  1  0.02387240  0.98252775  0.08003349  1
  C  C101  1  0.35064140  0.52713555  0.15001276  1
  C  C102  1  0.24878033  0.52152957  0.15107556  1
  Zn  Zn103  1  0.04323029  0.53571200  0.00920759  1
  H  H104  1  0.02562389  0.91413809  0.10793023  1
  C  C105  1  0.46252129  0.60669998  0.01381243  1
  C  C106  1  0.49246627  0.63053415  0.16886596  1
  H  H107  1  0.49781312  0.60253589  0.05552206  1
  H  H108  1  0.47422296  0.95445826  0.20448540  1
  C  C109  1  0.47250454  0.63842666  0.29092492  1
  Zn  Zn110  1  0.11660573  0.93233891  0.38352008  1
  C  C111  1  0.41039283  0.90971578  0.48132911  1
  O  O112  1  0.17154513  0.79822597  0.32178685  1
  H  H113  1  0.31535642  0.88210278  0.33602986  1
  C  C114  1  0.21544358  0.71293731  0.31270765  1
  C  C115  1  0.32058306  0.71281662  0.30954023  1
  O  O116  1  0.07009992  0.59787215  0.41250705  1
  C  C117  1  0.41500256  0.57264873  0.45474152  1
  C  C118  1  0.35853615  0.81290534  0.32487934  1
  C  C119  1  0.31286668  0.55872877  0.45548646  1
  O  O120  1  0.36094847  0.85320697  0.45237339  1
  O  O121  1  0.27262496  0.58419361  0.41097752  1
  C  C122  1  0.37690351  0.62374178  0.29113717  1
  O  O123  1  0.17966526  0.62454895  0.29720431  1
  H  H124  1  0.18719831  0.96269008  0.27335127  1
  C  C125  1  0.45350695  0.83350528  0.31382460  1
  H  H126  1  0.47939842  0.91676215  0.32319549  1
  H  H127  1  0.43561776  0.65169967  0.37476693  1
  C  C128  1  0.46685768  0.61836568  0.41121550  1
  C  C129  1  0.02327983  0.55922699  0.45239220  1
  H  H130  1  0.34400290  0.54923747  0.27643565  1
  H  H131  1  0.49893595  0.80900887  0.40232376  1
  O  O132  1  0.26988895  0.53045008  0.49944721  1
  O  O133  1  0.06437783  0.52640472  0.49472550  1
  Zn  Zn134  1  0.04000837  0.80723171  0.71495167  1
  Zn  Zn135  1  0.28683455  0.90946823  0.57932745  1
  O  O136  1  0.27110334  0.64769981  0.66763561  1
  Zn  Zn137  1  0.16723066  0.62700762  0.53690778  1
  C  C138  1  0.30654879  0.68483483  0.62790096  1
  H  H139  1  0.41268917  0.76074985  0.53436709  1
  O  O140  1  0.37871864  0.93729232  0.65045176  1
  C  C141  1  0.45171143  0.73540422  0.57058027  1
  H  H142  1  0.43405488  0.63693921  0.70322912  1
  O  O143  1  0.05530003  0.74548405  0.55502822  1
  O  O144  1  0.25374410  0.73192791  0.58465268  1
  C  C145  1  0.41216299  0.70061242  0.62031906  1
  O  O146  1  0.03949054  0.71037390  0.64249073  1
  C  C147  1  0.46727313  0.66620302  0.66500291  1
  C  C148  1  0.00205291  0.73087641  0.59564553  1
  O  O149  1  0.15506450  0.98945278  0.56148496  1
  O  O150  1  0.37324688  0.96780617  0.52032754  1
  O  O151  1  0.18864650  0.98037839  0.70856635  1
  C  C152  1  0.46352990  0.53349671  0.50230026  1
  C  C153  1  0.45256696  0.67295415  0.91736374  1
  H  H154  1  0.42654711  0.88186601  0.86736511  1
  O  O155  1  0.12511269  0.55226374  0.78651120  1
  O  O156  1  0.05552789  0.95973051  0.75386627  1
  C  C157  1  0.21607525  0.54805187  0.95444512  1
  O  O158  1  0.10252610  0.72922478  0.78713384  1
  C  C159  1  0.26141576  0.65983337  0.78281373  1
  C  C160  1  0.38867338  0.78950175  0.77825346  1
  C  C161  1  0.32442235  0.57364332  0.78735203  1
  O  O162  1  0.17826129  0.56042910  0.90944823  1
  H  H163  1  0.23996287  0.83524255  0.78596737  1
  C  C164  1  0.31362700  0.58883065  0.95901011  1
  C  C165  1  0.42002902  0.59202214  0.79075007  1
  C  C166  1  0.15634072  0.64616922  0.78574026  1
  C  C167  1  0.45083600  0.69964592  0.78640684  1
  C  C168  1  0.29201819  0.76976592  0.78234250  1
  H  H169  1  0.32080163  0.65759015  0.87578161  1
  C  C170  1  0.35659450  0.64662100  0.91463765  1
  H  H171  1  0.41367418  0.87140282  0.77486732  1
  C  C172  1  0.48980684  0.92400108  0.88539297  1
  H  H173  1  0.47070697  0.51892186  0.78919882  1
  H  H174  1  0.48013505  0.70642638  0.87828672  1
  O  O175  1  0.17894426  0.50144876  0.99471477  1
  C  C176  1  0.14035504  0.98411777  0.75135168  1
  H  H177  1  0.05089278  0.99060126  0.85212207  1
  C  C178  1  0.52385884  0.01475942  0.21954802  1
  C  C179  1  0.54314990  0.37042475  0.24908022  1
  O  O180  1  0.50087530  0.19998608  0.13180198  1
  C  C181  1  0.78377033  0.02232922  0.06954986  1
  H  H182  1  0.67025614  0.40010693  0.08659720  1
  C  C183  1  0.70284728  0.47277572  0.10669638  1
  C  C184  1  0.74117994  0.43433455  0.24062166  1
  H  H185  1  0.53205048  0.37875451  0.10098540  1
  C  C186  1  0.61713396  0.02214042  0.20367353  1
  C  C187  1  0.79777870  0.48960131  0.10067471  1
  H  H188  1  0.87939931  0.46738616  0.20350609  1
  H  H189  1  0.57700999  0.36355360  0.20843928  1
  H  H190  1  0.70047827  0.45822774  0.20280049  1
  H  H191  1  0.84497722  0.43029291  0.07812959  1
  H  H192  1  0.85225503  0.06079410  0.08230089  1
  C  C193  1  0.71930458  0.05922155  0.03047765  1
  C  C194  1  0.83709169  0.43786643  0.23968401  1
  H  H195  1  0.51370053  0.15505997  0.02579307  1
  N  N196  1  0.68225887  0.08658004  0.22593516  1
  H  H197  1  0.73121292  0.13436772  0.00658989  1
  C  C198  1  0.59413544  0.39268306  0.29749277  1
  C  C199  1  0.69915552  0.39986735  0.29258600  1
  C  C200  1  0.65604933  0.14086809  0.27137054  1
  C  C201  1  0.54857751  0.40370614  0.34933981  1
  C  C202  1  0.56530648  0.14497701  0.29205576  1
  C  C203  1  0.75245465  0.37049448  0.33992107  1
  N  N204  1  0.64137752  0.22391466  0.43607655  1
  H  H205  1  0.64761765  0.09147239  0.39268065  1
  C  C206  1  0.69551505  0.15485882  0.40879646  1
  H  H207  1  0.97105967  0.19724189  0.35059049  1
  H  H208  1  0.59364797  0.41320542  0.38881967  1
  C  C209  1  0.85058198  0.38238663  0.33741546  1
  C  C210  1  0.84322510  0.23268017  0.43931570  1
  H  H211  1  0.89677589  0.35388012  0.37216356  1
  C  C212  1  0.94982300  0.22780561  0.44140954  1
  H  H213  1  0.83309459  0.08501973  0.38833865  1
  H  H214  1  0.71130248  0.33468622  0.37474594  1
  H  H215  1  0.63638524  0.35134483  0.48617889  1
  H  H216  1  0.71317386  0.19428569  0.28678318  1
  C  C217  1  0.79329079  0.14791943  0.41087013  1
  C  C218  1  0.89204332  0.41559065  0.28757639  1
  H  H219  1  0.54347607  0.20922913  0.32356181  1
  C  C220  1  0.69058640  0.29971656  0.46407272  1
  C  C221  1  0.78737033  0.31192036  0.46730434  1
  C  C222  1  0.99812887  0.42345980  0.28876483  1
  H  H223  1  0.82366365  0.37591404  0.49318756  1
  C  C224  1  0.97528942  0.16489932  0.62289756  1
  H  H225  1  0.85007498  0.23672888  0.65445280  1
  C  C226  1  0.57063926  0.37808451  0.62416643  1
  C  C227  1  0.52712241  0.02555705  0.65226596  1
  C  C228  1  0.62498369  0.44396838  0.71329733  1
  C  C229  1  0.66746811  0.14449318  0.64970424  1
  C  C230  1  0.73388125  0.41519430  0.64665236  1
  H  H231  1  0.81198508  0.42091726  0.64249799  1
  H  H232  1  0.58804723  0.49780961  0.54293069  1
  O  O233  1  0.97166972  0.40044039  0.62062714  1
  C  C234  1  0.66638082  0.38496827  0.60751999  1
  H  H235  1  0.70326607  0.22511107  0.64745948  1
  H  H236  1  0.59647412  0.21794462  0.54362707  1
  C  C237  1  0.52283760  0.24316423  0.54709271  1
  C  C238  1  0.72290557  0.05088946  0.63811604  1
  C  C239  1  0.57074343  0.12754524  0.65502929  1
  C  C240  1  0.88055739  0.16371447  0.63427297  1
  C  C241  1  0.82374526  0.06898788  0.62840521  1
  H  H242  1  0.53006200  0.20084888  0.66484923  1
  H  H243  1  0.95983537  0.25427703  0.53211501  1
  N  N244  1  0.71442043  0.44607285  0.69828008  1
  H  H245  1  0.68306143  0.35646703  0.56437832  1
  H  H246  1  0.53191293  0.02163113  0.54478304  1
  C  C247  1  0.55139430  0.42631600  0.67677815  1
  H  H248  1  0.84770607  0.03176460  0.51062168  1
  C  C249  1  0.51830920  0.30548799  0.79182640  1
  C  C250  1  0.66169326  0.40864153  0.91875852  1
  C  C251  1  0.70695130  0.36655504  0.82336828  1
  C  C252  1  0.92039778  0.44052757  0.90510826  1
  H  H253  1  0.66496150  0.14046944  0.92831046  1
  C  C254  1  0.53890861  0.34885571  0.84532328  1
  C  C255  1  0.78770145  0.13351779  0.78606776  1
  C  C256  1  0.79806218  0.38983616  0.83683789  1
  C  C257  1  0.57459444  0.07095314  0.86446944  1
  O  O258  1  0.97723343  0.46502529  0.86512351  1
  C  C259  1  0.63346131  0.37995209  0.86291601  1
  O  O260  1  0.95497967  0.43243916  0.95289278  1
  C  C261  1  0.82032555  0.42111488  0.89196702  1
  H  H262  1  0.68251995  0.34062374  0.78019592  1
  C  C263  1  0.61703522  0.07230074  0.91780665  1
  C  C264  1  0.84571780  0.11254763  0.84029816  1
  H  H265  1  0.57084177  0.28109389  0.76349330  1
  C  C266  1  0.97640082  0.14795746  0.89998340  1
  H  H267  1  0.60242818  0.42038059  0.94656179  1
  C  C268  1  0.92907065  0.16923003  0.85052681  1
  H  H269  1  0.77289337  0.44580082  0.97821858  1
  H  H270  1  0.58550073  0.13239672  0.83093662  1
  C  C271  1  0.93184661  0.07788151  0.94015885  1
  H  H272  1  0.94812392  0.23377087  0.82092888  1
  C  C273  1  0.75231059  0.42137088  0.93605576  1
  O  O274  1  0.72040536  0.08089158  0.77502255  1
  H  H275  1  0.85219702  0.38829252  0.80309661  1
  C  C276  1  0.84811481  0.02041108  0.92895474  1
  C  C277  1  0.80505583  0.04167769  0.87725261  1
  N  N278  1  0.51194369  0.00090784  0.84786594  1
  O  O279  1  0.81355772  0.21740837  0.75864303  1
  C  C280  1  0.97751431  0.07628929  0.99850526  1
  H  H281  1  0.62625456  0.48207509  0.75379988  1
  C  C282  1  0.84477050  0.57218820  0.12950080  1
  N  N283  1  0.77869326  0.92633774  0.09725973  1
  H  H284  1  0.81012192  0.64101080  0.04965713  1
  H  H285  1  0.65228864  0.68337018  0.19439414  1
  H  H286  1  0.83075429  0.70465607  0.18289444  1
  H  H287  1  0.52322754  0.69562921  0.19015682  1
  C  C288  1  0.69734287  0.63231107  0.16882884  1
  C  C289  1  0.79286587  0.64092969  0.16413929  1
  H  H290  1  0.64525052  0.61685247  0.05175532  1
  C  C291  1  0.71180975  0.86206785  0.08260993  1
  C  C292  1  0.54458007  0.54458613  0.14067078  1
  C  C293  1  0.64793225  0.55293949  0.13656884  1
  C  C294  1  0.94764090  0.58605507  0.12139309  1
  H  H295  1  0.94977697  0.90124884  0.01325551  1
  C  C296  1  0.64629740  0.88509900  0.03927809  1
  H  H297  1  0.71540046  0.78118211  0.10568403  1
  C  C298  1  0.67425297  0.64035696  0.01110703  1
  O  O299  1  0.98791580  0.51340073  0.09330375  1
  C  C300  1  0.65637371  0.98086855  0.00776292  1
  H  H301  1  0.58761442  0.83119790  0.03168518  1
  O  O302  1  0.95698390  0.66945415  0.00074124  1
  C  C303  1  0.76845722  0.65218103  0.01119484  1
  C  C304  1  0.98214833  0.97547245  0.02878488  1
  O  O305  1  0.99201462  0.65869957  0.14619342  1
  H  H306  1  0.65557402  0.98995953  0.16650369  1
  C  C307  1  0.76293203  0.66425363  0.29109908  1
  C  C308  1  0.91801430  0.55057280  0.45538496  1
  C  C309  1  0.71888733  0.56351780  0.46497359  1
  H  H310  1  0.72561805  0.58305137  0.37528661  1
  H  H311  1  0.96355450  0.76862072  0.36063801  1
  C  C312  1  0.98909206  0.91028188  0.41658593  1
  H  H313  1  0.60467064  0.66185813  0.38171998  1
  C  C314  1  0.76436813  0.57864238  0.41362510  1
  C  C315  1  0.96717418  0.98789687  0.45704344  1
  C  C316  1  0.86171694  0.56052308  0.40836427  1
  H  H317  1  0.89323572  0.55577015  0.36622910  1
  C  C318  1  0.84479693  0.82284752  0.41660868  1
  H  H319  1  0.67973359  0.82501624  0.38435895  1
  C  C320  1  0.51165650  0.74418249  0.30498434  1
  C  C321  1  0.87347803  0.97645451  0.47831232  1
  H  H322  1  0.79272859  0.76402845  0.40953267  1
  C  C323  1  0.56351711  0.61971578  0.41410545  1
  C  C324  1  0.61470268  0.57356699  0.46007732  1
  C  C325  1  0.66628305  0.65723720  0.29571099  1
  C  C326  1  0.64346659  0.85437779  0.42100519  1
  C  C327  1  0.54717715  0.84976408  0.42833312  1
  H  H328  1  0.62832800  0.57656820  0.29825556  1
  C  C329  1  0.93535967  0.82620093  0.39307083  1
  H  H330  1  0.61677052  0.93986601  0.29106188  1
  C  C331  1  0.70428628  0.90522167  0.46041214  1
  C  C332  1  0.80895792  0.90378665  0.45500587  1
  C  C333  1  0.61440694  0.75598388  0.29730499  1
  C  C334  1  0.80467281  0.76836230  0.29075092  1
  C  C335  1  0.65651502  0.86342207  0.29661029  1
  H  H336  1  0.80442519  0.59099510  0.28614503  1
  C  C337  1  0.75299590  0.86945577  0.29371526  1
  C  C338  1  0.51356769  0.91281461  0.47408721  1
  H  H339  1  0.78628343  0.95321048  0.29385394  1
  O  O340  1  0.96409890  0.67537083  0.27736785  1
  O  O341  1  0.94495639  0.86350169  0.27154431  1
  H  H342  1  0.91406473  0.62839431  0.27052410  1
  C  C343  1  0.90363788  0.78032285  0.27652613  1
  H  H344  1  0.88252135  0.76740182  0.49985568  1
  H  H345  1  0.52099361  0.57143338  0.27935727  1
  H  H346  1  0.89765965  0.66789017  0.67842476  1
  C  C347  1  0.60387629  0.69037985  0.60572603  1
  C  C348  1  0.56509558  0.66569847  0.65838257  1
  H  H349  1  0.99829402  0.90794636  0.56792370  1
  C  C350  1  0.58468585  0.93580157  0.64089330  1
  C  C351  1  0.76190014  0.68397992  0.64772380  1
  C  C352  1  0.54595750  0.73158401  0.56240443  1
  H  H353  1  0.83258827  0.89696934  0.59634542  1
  C  C354  1  0.96612142  0.97625337  0.59067326  1
  C  C355  1  0.84925780  0.74716600  0.53963014  1
  H  H356  1  0.73190371  0.66464975  0.68893373  1
  H  H357  1  0.60853709  0.63773522  0.69420319  1
  H  H358  1  0.91363835  0.52233818  0.54348351  1
  C  C359  1  0.70856828  0.69920947  0.60016680  1
  C  C360  1  0.85750015  0.69173023  0.64108667  1
  C  C361  1  0.67956883  0.94496208  0.63651833  1
  H  H362  1  0.73974467  0.52796728  0.55456907  1
  C  C363  1  0.75131444  0.73083142  0.54884684  1
  C  C364  1  0.89882053  0.72723453  0.59107600  1
  H  H365  1  0.72047771  0.87006075  0.62919018  1
  H  H366  1  0.72198095  0.89067909  0.72977333  1
  H  H367  1  0.56118710  0.85056330  0.63604147  1
  H  H368  1  0.54742395  0.86767541  0.73870834  1
  C  C369  1  0.77285315  0.53875721  0.51388074  1
  C  C370  1  0.87266876  0.97675553  0.60541733  1
  H  H371  1  0.57958609  0.74754187  0.52211899  1
  C  C372  1  0.87031154  0.53482054  0.50718023  1
  H  H373  1  0.70321577  0.74456787  0.51346509  1
  C  C374  1  0.55936423  0.53709271  0.50510173  1
  H  H375  1  0.70602354  0.98345819  0.54292699  1
  O  O376  1  0.88965076  0.81232880  0.74420420  1
  C  C377  1  0.56730088  0.96893090  0.51282714  1
  C  C378  1  0.66462497  0.95412249  0.50857790  1
  C  C379  1  0.50942267  0.64792111  0.96465189  1
  H  H380  1  0.73803181  0.99545335  0.86853890  1
  C  C381  1  0.80548743  0.69187119  0.96002572  1
  H  H382  1  0.61377234  0.73698258  0.88060570  1
  O  O383  1  0.95097314  0.74024158  0.91803950  1
  C  C384  1  0.75103362  0.72325487  0.91365663  1
  C  C385  1  0.61543175  0.63275954  0.80660448  1
  C  C386  1  0.90781301  0.70354053  0.95921355  1
  C  C387  1  0.61327277  0.66688632  0.96460399  1
  H  H388  1  0.81366081  0.96742386  0.95803231  1
  C  C389  1  0.65574156  0.70730954  0.91704624  1
  C  C390  1  0.71209047  0.64478965  0.80227813  1
  H  H391  1  0.77408348  0.76358901  0.87503607  1
  C  C392  1  0.84870930  0.73160083  0.76313108  1
  H  H393  1  0.58317451  0.56933419  0.82931393  1
  C  C394  1  0.74672505  0.73958719  0.77602712  1
  O  O395  1  0.89731640  0.64419647  0.77507689  1
  H  H396  1  0.75966328  0.58076972  0.81377317  1
  C  C397  1  0.52554991  0.91290460  0.93946352  1
  C  C398  1  0.55483262  0.71471261  0.78548614  1
  H  H399  1  0.50734521  0.84334284  0.96512796  1
  C  C400  1  0.59214723  0.80851447  0.75917512  1
  Zn  Zn401  1  0.97248045  0.64140131  0.84281142  1
  C  C402  1  0.68869390  0.81811721  0.75280735  1
  C  C403  1  0.59497211  0.98894006  0.95619487  1
