# generated using pymatgen
data_ZnH7C13NO4
_symmetry_space_group_name_H-M   'P 1'
_cell_length_a   14.30977023
_cell_length_b   21.89749852
_cell_length_c   17.84781463
_cell_angle_alpha   90.00000000
_cell_angle_beta   90.00000000
_cell_angle_gamma   90.00000000
_symmetry_Int_Tables_number   1
_chemical_formula_structural   ZnH7C13NO4
_chemical_formula_sum   'Zn16 H112 C208 N16 O64'
_cell_volume   5592.58009815
_cell_formula_units_Z   16
loop_
 _symmetry_equiv_pos_site_id
 _symmetry_equiv_pos_as_xyz
  1  'x, y, z'
loop_
 _atom_site_type_symbol
 _atom_site_label
 _atom_site_symmetry_multiplicity
 _atom_site_fract_x
 _atom_site_fract_y
 _atom_site_fract_z
 _atom_site_occupancy
  C  C0  1  0.02891515  0.45951345  0.22477580  1
  C  C1  1  0.32343759  0.14955542  0.13484608  1
  C  C2  1  0.31073194  0.42747825  0.18430240  1
  C  C3  1  0.09999910  0.14375066  0.15061117  1
  O  O4  1  0.04782485  0.22068220  0.04816067  1
  H  H5  1  0.44363313  0.31844848  0.21101472  1
  H  H6  1  0.34014819  0.19824569  0.01652595  1
  C  C7  1  0.31294629  0.36439668  0.16480762  1
  C  C8  1  0.26349815  0.32353552  0.21187014  1
  H  H9  1  0.26199958  0.27275495  0.20757127  1
  C  C10  1  0.27245222  0.17484868  0.20304746  1
  C  C11  1  0.06302401  0.08562448  0.17828280  1
  H  H12  1  0.34865800  0.35156637  0.11317429  1
  C  C13  1  0.33635312  0.24692477  0.00170087  1
  O  O14  1  0.28622334  0.12759310  0.08159587  1
  C  C15  1  0.05460085  0.17477043  0.08292198  1
  H  H16  1  0.15959546  0.47520076  0.14155196  1
  C  C17  1  0.49388035  0.35338185  0.19981263  1
  H  H18  1  0.34712150  0.46359275  0.15263876  1
  H  H19  1  0.38327155  0.00621103  0.06158056  1
  C  C20  1  0.42233695  0.15776390  0.14582202  1
  H  H21  1  0.09575157  0.43524068  0.21950714  1
  O  O22  1  0.15009911  0.49917313  0.09456110  1
  C  C23  1  0.46476434  0.18588049  0.20459705  1
  H  H24  1  0.47560983  0.14479060  0.10282406  1
  C  C25  1  0.17370147  0.16922080  0.20566348  1
  H  H26  1  0.49084449  0.33652167  0.08274303  1
  C  C27  1  0.08029902  0.04473511  0.23586776  1
  O  O28  1  0.08168937  0.00346871  0.00498924  1
  N  N29  1  0.26089304  0.45386786  0.24098724  1
  C  C30  1  0.25698513  0.28495549  0.00157689  1
  H  H31  1  0.19100911  0.26606626  0.02216461  1
  C  C32  1  0.46323604  0.09569770  0.35595604  1
  H  H33  1  0.15181329  0.36205511  0.42919494  1
  C  C34  1  0.49728073  0.39842339  0.33928357  1
  C  C35  1  0.31966329  0.20067177  0.26603598  1
  C  C36  1  0.38821865  0.10434918  0.47430338  1
  H  H37  1  0.17199222  0.32165998  0.31311274  1
  H  H38  1  0.15529972  0.19573102  0.45077046  1
  C  C39  1  0.40482287  0.36851363  0.44989800  1
  C  C40  1  0.26968458  0.21816877  0.33402879  1
  O  O41  1  0.16227907  0.21122045  0.33243142  1
  C  C42  1  0.42749431  0.36160713  0.37410005  1
  O  O43  1  0.30403918  0.24024486  0.38747887  1
  C  C44  1  0.01557796  0.17301035  0.49019477  1
  C  C45  1  0.43162540  0.03437145  0.35002079  1
  C  C46  1  0.22261605  0.41480912  0.28904814  1
  O  O47  1  0.02152327  0.33094604  0.35519810  1
  C  C48  1  0.13632988  0.44784965  0.48789705  1
  C  C49  1  0.13011020  0.18972959  0.27047236  1
  C  C50  1  0.41760379  0.20757475  0.26755327  1
  C  C51  1  0.43406263  0.13326172  0.41538227  1
  C  C52  1  0.15503415  0.41287348  0.42446145  1
  H  H53  1  0.35272598  0.34032620  0.47975875  1
  H  H54  1  0.39238074  0.32448096  0.34387078  1
  C  C55  1  0.18874399  0.44737490  0.36061456  1
  Zn  Zn56  1  0.16687246  0.05070950  0.32282230  1
  H  H57  1  0.45517057  0.23272067  0.31092971  1
  C  C58  1  0.46012365  0.40932847  0.49180399  1
  H  H59  1  0.45400781  0.00297601  0.30480697  1
  H  H60  1  0.05405859  0.18110583  0.27788269  1
  N  N61  1  0.38232137  0.00643468  0.40371676  1
  C  C62  1  0.21575753  0.34910743  0.27340872  1
  H  H63  1  0.45723139  0.18233120  0.42058581  1
  C  C64  1  0.36821494  0.03975035  0.46616822  1
  C  C65  1  0.11563640  0.18122208  0.49788650  1
  O  O66  1  0.23350785  0.15457431  0.70684572  1
  C  C67  1  0.46060418  0.23255896  0.60944333  1
  O  O68  1  0.49984945  0.19960197  0.56752781  1
  H  H69  1  0.44210134  0.42080425  0.55005062  1
  H  H70  1  0.36080998  0.12738531  0.52173863  1
  C  C71  1  0.41019386  0.03852382  0.69813737  1
  C  C72  1  0.26045156  0.03401194  0.58900501  1
  O  O73  1  0.37237578  0.23826085  0.60926153  1
  H  H74  1  0.22899700  0.18494229  0.57400888  1
  C  C75  1  0.09434704  0.16037651  0.63172669  1
  C  C76  1  0.15411852  0.17422521  0.56888699  1
  H  H77  1  0.05788777  0.43845980  0.67745684  1
  H  H78  1  0.27045998  0.07900494  0.60153211  1
  H  H79  1  0.42713155  0.34594320  0.62414079  1
  C  C80  1  0.14471711  0.15681471  0.70544026  1
  C  C81  1  0.49349961  0.44486585  0.72281287  1
  O  O82  1  0.43441715  0.46923094  0.68351904  1
  O  O83  1  0.14641954  0.34433654  0.66067025  1
  C  C84  1  0.48069783  0.33592074  0.66680124  1
  C  C85  1  0.30602664  0.00878875  0.52406842  1
  H  H86  1  0.40667026  0.08277876  0.66482004  1
  H  H87  1  0.16276967  0.01363444  0.67866280  1
  H  H88  1  0.12039763  0.42365777  0.53954847  1
  H  H89  1  0.28239587  0.46719159  0.59394176  1
  C  C90  1  0.10055747  0.45882405  0.72184550  1
  C  C91  1  0.19918533  0.36030326  0.71103495  1
  Zn  Zn92  1  0.30004230  0.23438206  0.71968123  1
  O  O93  1  0.26671937  0.32885887  0.73565906  1
  C  C94  1  0.17627807  0.42288496  0.74604895  1
  C  C95  1  0.42662584  0.32627341  0.96611877  1
  C  C96  1  0.45746985  0.17705037  0.83990883  1
  Zn  Zn97  1  0.00299800  0.12231876  0.85610727  1
  O  O98  1  0.40333381  0.21529414  0.81317647  1
  H  H99  1  0.20042905  0.38460759  0.98509007  1
  H  H100  1  0.36834479  0.41744007  0.96527287  1
  O  O101  1  0.15621891  0.03327096  0.90801569  1
  C  C102  1  0.24101222  0.44477255  0.79570034  1
  O  O103  1  0.10052423  0.16082585  0.76478889  1
  H  H104  1  0.30275909  0.41692449  0.80757138  1
  C  C105  1  0.35199284  0.36960266  0.97125744  1
  H  H106  1  0.29046814  0.06015455  0.77363798  1
  O  O107  1  0.44516326  0.15954217  0.90616550  1
  C  C108  1  0.08232481  0.02325826  0.93792684  1
  C  C109  1  0.26135551  0.34869747  0.98367933  1
  N  N110  1  0.41992775  0.26629903  0.98507003  1
  H  H111  1  0.49915034  0.44621509  0.92304421  1
  C  C112  1  0.34514967  0.02463468  0.75647563  1
  C  C113  1  0.45517829  0.57296212  0.22225903  1
  C  C114  1  0.06732674  0.52768267  0.11036251  1
  O  O115  1  0.03545104  0.56750966  0.07013432  1
  N  N116  1  0.36686012  0.58816446  0.21780162  1
  Zn  Zn117  1  0.20806760  0.94134177  0.00692982  1
  H  H118  1  0.39022640  0.72039765  0.11910823  1
  C  C119  1  0.40382979  0.95919426  0.03984788  1
  C  C120  1  0.24006966  0.65518313  0.17610111  1
  C  C121  1  0.19048250  0.70254049  0.13559624  1
  H  H122  1  0.44152103  0.83594714  0.12493180  1
  C  C123  1  0.34511701  0.63986844  0.17925106  1
  H  H124  1  0.22965783  0.73511265  0.10437277  1
  C  C125  1  0.41489621  0.68052903  0.15043109  1
  C  C126  1  0.47355166  0.81084381  0.07544658  1
  C  C127  1  0.09415159  0.70821223  0.14481225  1
  H  H128  1  0.05522736  0.74862881  0.11787964  1
  C  C129  1  0.00536518  0.50580948  0.17128283  1
  C  C130  1  0.34455463  0.91244443  0.01317695  1
  C  C131  1  0.49630212  0.94670978  0.04804490  1
  N  N132  1  0.19592706  0.61210366  0.21244915  1
  C  C133  1  0.04884220  0.66163731  0.18809730  1
  C  C134  1  0.10454158  0.61679491  0.22336746  1
  H  H135  1  0.00289946  0.95952528  0.24634398  1
  C  C136  1  0.42907349  0.81402719  0.00688382  1
  H  H137  1  0.19975933  0.58768442  0.41574654  1
  O  O138  1  0.16546348  0.91992265  0.37983594  1
  O  O139  1  0.04525204  0.98954919  0.41859465  1
  C  C140  1  0.32986946  0.79239374  0.34034450  1
  Zn  Zn141  1  0.33431895  0.91991588  0.39193300  1
  C  C142  1  0.41679752  0.70152178  0.36526561  1
  O  O143  1  0.26235215  0.76150077  0.34350822  1
  H  H144  1  0.08315905  0.57804642  0.25800978  1
  C  C145  1  0.42585992  0.76320679  0.34888840  1
  H  H146  1  0.15684659  0.92321242  0.43204582  1
  O  O147  1  0.41555577  0.57931132  0.38522076  1
  C  C148  1  0.49192111  0.60072091  0.39064633  1
  N  N149  1  0.20592386  0.50731100  0.35998875  1
  C  C150  1  0.08408126  0.97257939  0.36157935  1
  H  H151  1  0.34729615  0.68000717  0.36475899  1
  O  O152  1  0.32073356  0.84987092  0.31821877  1
  H  H153  1  0.37640700  0.51949992  0.48259245  1
  N  N154  1  0.28157234  0.95443513  0.49529268  1
  Zn  Zn155  1  0.26498476  0.53959656  0.25958094  1
  C  C156  1  0.18227166  0.53810117  0.42037016  1
  C  C157  1  0.14394068  0.51322412  0.48553032  1
  C  C158  1  0.05737482  0.98822942  0.27446122  1
  H  H159  1  0.45835719  0.53059126  0.25633264  1
  C  C160  1  0.35396379  0.74518080  0.55272857  1
  N  N161  1  0.26062090  0.61117780  0.65418524  1
  C  C162  1  0.34176115  0.54399603  0.53047296  1
  H  H163  1  0.35705218  0.87605747  0.66245693  1
  H  H164  1  0.39919430  0.83534662  0.52816248  1
  C  C165  1  0.35099795  0.60829905  0.53870105  1
  H  H166  1  0.16140524  0.90027419  0.64680036  1
  H  H167  1  0.13261967  0.54052785  0.53447654  1
  H  H168  1  0.38323469  0.72605027  0.50135080  1
  C  C169  1  0.31384752  0.70907976  0.61111838  1
  C  C170  1  0.26117980  0.55223475  0.65216221  1
  C  C171  1  0.29332582  0.51755551  0.59090539  1
  C  C172  1  0.30495341  0.63980365  0.59805878  1
  H  H173  1  0.23271769  0.53188266  0.70481385  1
  C  C174  1  0.36860506  0.80595988  0.57232555  1
  N  N175  1  0.49171009  0.93863132  0.72131717  1
  C  C176  1  0.19969258  0.93415010  0.60911338  1
  N  N177  1  0.27861445  0.73022316  0.67672673  1
  C  C178  1  0.33935755  0.82862068  0.64245382  1
  Zn  Zn179  1  0.20848260  0.66538225  0.74255096  1
  C  C180  1  0.47592730  0.99076330  0.68299922  1
  C  C181  1  0.24486515  0.91471688  0.54280094  1
  C  C182  1  0.20174318  0.99663597  0.63014359  1
  H  H183  1  0.39360211  0.63659935  0.50014244  1
  C  C184  1  0.28817229  0.78738757  0.68920669  1
  H  H185  1  0.25406384  0.79913730  0.74335436  1
  H  H186  1  0.24461397  0.86768152  0.51728014  1
  H  H187  1  0.02573038  0.54606466  0.73168317  1
  C  C188  1  0.45499247  0.78206307  0.94007381  1
  Zn  Zn189  1  0.05420387  0.58720286  0.94859972  1
  O  O190  1  0.28698653  0.59596720  0.90262715  1
  C  C191  1  0.21471736  0.62642306  0.88526378  1
  C  C192  1  0.24968664  0.81644496  0.97781343  1
  C  C193  1  0.14704498  0.53858578  0.80698725  1
  C  C194  1  0.34176179  0.85229093  0.99444517  1
  C  C195  1  0.35857284  0.96904136  0.79490946  1
  H  H196  1  0.33696678  0.79215171  0.86055644  1
  H  H197  1  0.45808541  0.88883636  0.81390497  1
  O  O198  1  0.24311451  0.76238555  0.97355392  1
  H  H199  1  0.20179877  0.67287358  0.91291726  1
  C  C200  1  0.04014976  0.62893324  0.84279863  1
  O  O201  1  0.17453616  0.84802716  0.96846895  1
  C  C202  1  0.13539171  0.59958972  0.84211984  1
  C  C203  1  0.04604247  0.70291308  0.84849654  1
  C  C204  1  0.40849811  0.77169266  0.87108893  1
  O  O205  1  0.00079972  0.73051795  0.89367382  1
  C  C206  1  0.22821825  0.50365584  0.82959018  1
  O  O207  1  0.11008757  0.72792521  0.81044846  1
  C  C208  1  0.43205774  0.92910606  0.77727361  1
  C  C209  1  0.44762492  0.73199973  0.81609931  1
  C  C210  1  0.08520738  0.51724307  0.75055143  1
  C  C211  1  0.30012981  0.52645971  0.87765167  1
  H  H212  1  0.30985451  0.95630599  0.84006043  1
  O  O213  1  0.37195266  0.50423280  0.89419513  1
  H  H214  1  0.40969280  0.72409160  0.76373501  1
  O  O215  1  0.80735011  0.12025832  0.17069697  1
  C  C216  1  0.82592826  0.17036749  0.20330931  1
  O  O217  1  0.81188295  0.22110727  0.17436785  1
  O  O218  1  0.71797501  0.02818322  0.23151521  1
  O  O219  1  0.70679044  0.10512252  0.00238488  1
  O  O220  1  0.61615483  0.17030658  0.15191318  1
  Zn  Zn221  1  0.67816930  0.08127368  0.12219186  1
  Zn  Zn222  1  0.97217861  0.09161188  0.08785078  1
  C  C223  1  0.52205324  0.36393467  0.12652404  1
  H  H224  1  0.88654798  0.25410425  0.03866917  1
  H  H225  1  0.69152853  0.47505949  0.16798933  1
  C  C226  1  0.62997918  0.44188476  0.17399605  1
  O  O227  1  0.53876818  0.04513370  0.09239749  1
  H  H228  1  0.61729490  0.40899414  0.05750376  1
  C  C229  1  0.56974032  0.19444374  0.20192083  1
  N  N230  1  0.59136010  0.44055227  0.24132858  1
  C  C231  1  0.59295079  0.40762304  0.11479319  1
  Zn  Zn232  1  0.72010367  0.28539765  0.23300131  1
  O  O233  1  0.61346992  0.22132835  0.25476851  1
  C  C234  1  0.83401285  0.48327216  0.36752043  1
  C  C235  1  0.95023705  0.11721785  0.37394778  1
  C  C236  1  0.97765778  0.17421644  0.40953452  1
  C  C237  1  0.97163020  0.44931323  0.28560979  1
  C  C238  1  0.78681751  0.42824297  0.39204638  1
  O  O239  1  0.73471834  0.32327436  0.39262681  1
  C  C240  1  0.87301240  0.17114852  0.27801666  1
  C  C241  1  0.88683216  0.48385506  0.29568942  1
  O  O242  1  0.78351660  0.35603384  0.28408751  1
  C  C243  1  0.76824988  0.36845180  0.35319858  1
  O  O244  1  0.69005125  0.06386985  0.34405380  1
  C  C245  1  0.74702147  0.43510663  0.46106984  1
  H  H246  1  0.90582098  0.27119987  0.27189455  1
  H  H247  1  0.56685093  0.48210672  0.47246396  1
  C  C248  1  0.91469653  0.22687132  0.30179129  1
  C  C249  1  0.95989854  0.22685304  0.36840602  1
  N  N250  1  0.54123101  0.44235217  0.37789106  1
  C  C251  1  0.89518216  0.11437742  0.31078662  1
  C  C252  1  0.68404879  0.02352783  0.29644667  1
  H  H253  1  0.86491209  0.07053464  0.28581013  1
  H  H254  1  0.95952298  0.07366444  0.40772871  1
  C  C255  1  0.52970739  0.39371383  0.25796769  1
  H  H256  1  0.63418603  0.09822449  0.48125829  1
  Zn  Zn257  1  0.80932974  0.27672293  0.47586801  1
  O  O258  1  0.95646643  0.30722154  0.45919122  1
  H  H259  1  0.51048863  0.11582374  0.31368588  1
  C  C260  1  0.52412112  0.44533241  0.45158664  1
  O  O261  1  0.80446491  0.18219341  0.49377866  1
  C  C262  1  0.98704757  0.29451658  0.39667304  1
  H  H263  1  0.70372884  0.39922502  0.48521454  1
  H  H264  1  0.99214738  0.41506576  0.32800616  1
  H  H265  1  0.75543433  0.01361753  0.48245239  1
  C  C266  1  0.99684687  0.16075691  0.62242412  1
  C  C267  1  0.79351325  0.25458874  0.71703520  1
  H  H268  1  0.95287966  0.15324918  0.67051475  1
  O  O269  1  0.77706799  0.31677842  0.58133398  1
  O  O270  1  0.66616693  0.44330863  0.60017350  1
  C  C271  1  0.84984347  0.16033329  0.54869835  1
  C  C272  1  0.55764673  0.05260805  0.57196841  1
  C  C273  1  0.56571612  0.25182475  0.72478867  1
  C  C274  1  0.82964064  0.34068414  0.63408994  1
  C  C275  1  0.95629953  0.16605187  0.55221060  1
  O  O276  1  0.87236969  0.38854443  0.62437849  1
  H  H277  1  0.72908310  0.06835765  0.67520358  1
  C  C278  1  0.58433710  0.18324498  0.73447226  1
  C  C279  1  0.83964460  0.30983878  0.70984129  1
  H  H280  1  0.66412978  0.17134490  0.63565037  1
  O  O281  1  0.80878288  0.13549767  0.59940794  1
  H  H282  1  0.77062711  0.23075885  0.66754341  1
  H  H283  1  0.50587211  0.09110518  0.57931152  1
  C  C284  1  0.65032205  0.15053377  0.69102163  1
  C  C285  1  0.68287573  0.09270533  0.71312444  1
  C  C286  1  0.70404505  0.49002990  0.57838160  1
  C  C287  1  0.52012633  0.37810149  0.71683258  1
  C  C288  1  0.69402682  0.01169111  0.51898466  1
  C  C289  1  0.63054179  0.06178456  0.52084637  1
  C  C290  1  0.75474853  0.48977320  0.50414828  1
  C  C291  1  0.50264639  0.27410309  0.67254701  1
  C  C292  1  0.54813474  0.00091153  0.62034616  1
  H  H293  1  0.92556576  0.38348779  0.74692254  1
  C  C294  1  0.84278316  0.25457698  0.84611135  1
  C  C295  1  0.64779081  0.42822609  0.93118374  1
  C  C296  1  0.65299406  0.06732666  0.77926119  1
  Zn  Zn297  1  0.53660195  0.21735271  0.97708844  1
  C  C298  1  0.79581621  0.22550167  0.78777739  1
  C  C299  1  0.89223586  0.31332634  0.83371509  1
  C  C300  1  0.54060736  0.15197988  0.79668134  1
  C  C301  1  0.98900883  0.02844628  0.89369675  1
  C  C302  1  0.55233550  0.41052936  0.93309117  1
  H  H303  1  0.85325887  0.02707855  0.95211943  1
  C  C304  1  0.67871925  0.31888238  0.94721769  1
  O  O305  1  0.91828197  0.32145173  0.97564309  1
  H  H306  1  0.76183902  0.18142803  0.79495715  1
  C  C307  1  0.85131098  0.22871668  0.92179287  1
  C  C308  1  0.88082063  0.11838700  0.92335792  1
  H  H309  1  0.55813055  0.07109199  0.87008643  1
  C  C310  1  0.52696030  0.34879040  0.94690885  1
  O  O311  1  0.67956692  0.20202669  0.99396336  1
  H  H312  1  0.67116214  0.47685847  0.92736501  1
  C  C313  1  0.82021429  0.16515990  0.93843381  1
  C  C314  1  0.58167366  0.09724110  0.81974471  1
  C  C315  1  0.90632258  0.05960775  0.92643234  1
  H  H316  1  0.62340037  0.38990410  0.80547750  1
  O  O317  1  0.54196801  0.47713047  0.76814081  1
  H  H318  1  0.66249763  0.27734791  0.81177982  1
  C  C319  1  0.70937312  0.37815572  0.93617779  1
  C  C320  1  0.89249369  0.34057361  0.76308884  1
  H  H321  1  0.78410175  0.38805210  0.93709887  1
  C  C322  1  0.88620288  0.26704886  0.97677861  1
  N  N323  1  0.58945661  0.30353124  0.95257760  1
  H  H324  1  0.72236335  0.27767446  0.94950047  1
  C  C325  1  0.93469179  0.34629451  0.89487261  1
  O  O326  1  0.96533256  0.39609117  0.88801565  1
  C  C327  1  0.73335262  0.15612507  0.98173853  1
  C  C328  1  0.58993804  0.35706429  0.77022700  1
  C  C329  1  0.60972134  0.29575445  0.77569109  1
  C  C330  1  0.86316786  0.52695598  0.23970929  1
  C  C331  1  0.53010377  0.60675296  0.19102605  1
  C  C332  1  0.51011129  0.66168788  0.15258240  1
  H  H333  1  0.65962009  0.93734663  0.19332992  1
  C  C334  1  0.78643364  0.57375659  0.23965609  1
  O  O335  1  0.78428072  0.61427924  0.19246978  1
  O  O336  1  0.67199713  0.73063744  0.03106602  1
  H  H337  1  0.90168754  0.57376101  0.13414224  1
  O  O338  1  0.54956088  0.78708096  0.09293713  1
  O  O339  1  0.64599218  0.98332102  0.08598862  1
  H  H340  1  0.60617303  0.59363041  0.19603035  1
  C  C341  1  0.91983875  0.53617760  0.17674567  1
  H  H342  1  0.56953350  0.83820754  0.21898308  1
  H  H343  1  0.56523054  0.68854159  0.12558534  1
  C  C344  1  0.62806882  0.92513220  0.24791983  1
  C  C345  1  0.56228514  0.99163536  0.07617849  1
  C  C346  1  0.59981802  0.75608389  0.02358901  1
  H  H347  1  0.52050199  0.90024519  0.03689772  1
  H  H348  1  0.97232802  0.65892931  0.18756172  1
  O  O349  1  0.56341817  0.57068567  0.41104814  1
  C  C350  1  0.80163555  0.54071093  0.48139333  1
  C  C351  1  0.84634811  0.53617294  0.40986746  1
  H  H352  1  0.89149602  0.57227912  0.38682750  1
  C  C353  1  0.59340038  0.75523466  0.35579459  1
  C  C354  1  0.51321985  0.79271383  0.34601246  1
  C  C355  1  0.58998563  0.69343874  0.36792261  1
  C  C356  1  0.50103059  0.66903138  0.37172369  1
  C  C357  1  0.62643640  0.96485783  0.30995115  1
  H  H358  1  0.65221399  0.66260062  0.37370396  1
  C  C359  1  0.59090953  0.95564928  0.37955686  1
  H  H360  1  0.60092832  0.99212745  0.41828455  1
  O  O361  1  0.72336646  0.56961948  0.29047164  1
  C  C362  1  0.54185190  0.90011519  0.39837533  1
  C  C363  1  0.54702721  0.85756679  0.33364588  1
  H  H364  1  0.52166773  0.75425176  0.47028701  1
  H  H365  1  0.66480540  0.77672208  0.35321510  1
  O  O366  1  0.50378381  0.88791538  0.45769301  1
  Zn  Zn367  1  0.62340111  0.50526274  0.31892194  1
  C  C368  1  0.57814053  0.87161870  0.26269559  1
  C  C369  1  0.65223424  0.70379246  0.61415550  1
  C  C370  1  0.65181408  0.75982113  0.65584979  1
  H  H371  1  0.70101650  0.66798708  0.63458777  1
  N  N372  1  0.61486275  0.95665403  0.61833398  1
  H  H373  1  0.96284576  0.66085527  0.71115787  1
  O  O374  1  0.50808138  0.64181039  0.72475660  1
  Zn  Zn375  1  0.60113324  0.88727333  0.69479885  1
  O  O376  1  0.68886376  0.54029467  0.61380595  1
  C  C377  1  0.59961636  0.69619447  0.54634748  1
  Zn  Zn378  1  0.62822695  0.54117179  0.71628446  1
  N  N379  1  0.59835675  0.80986261  0.63466871  1
  H  H380  1  0.81873953  0.59898096  0.65769211  1
  H  H381  1  0.60106729  0.65548531  0.51129353  1
  C  C382  1  0.68273729  0.96161846  0.56864626  1
  H  H383  1  0.53130840  0.85395478  0.55496199  1
  C  C384  1  0.56218631  0.80713305  0.56786470  1
  H  H385  1  0.73295061  0.92411001  0.57577210  1
  O  O386  1  0.73969456  0.97344555  0.74509272  1
  C  C387  1  0.55851857  0.75266381  0.52518368  1
  H  H388  1  0.80135256  0.58543705  0.51361471  1
  O  O389  1  0.86562420  0.67617096  0.56964087  1
  C  C390  1  0.93912495  0.66857686  0.56873197  1
  C  C391  1  0.69881131  0.77088798  0.72893465  1
  C  C392  1  0.85144330  0.59286312  0.71279971  1
  C  C393  1  0.92501228  0.62457587  0.73933983  1
  H  H394  1  0.78663789  0.68760171  0.74176669  1
  O  O395  1  0.63103923  0.62191624  0.79084591  1
  C  C396  1  0.78967817  0.74572011  0.84302990  1
  O  O397  1  0.90465779  0.55279875  0.83284312  1
  O  O398  1  0.76110512  0.51022810  0.76605946  1
  C  C399  1  0.72644497  0.84705591  0.81712819  1
  H  H400  1  0.83286937  0.71739276  0.87687265  1
  C  C401  1  0.58815270  0.71829920  0.89636694  1
  H  H402  1  0.64997785  0.69110033  0.90334582  1
  O  O403  1  0.66559445  0.97279087  0.85228147  1
  C  C404  1  0.54796886  0.75233967  0.95468781  1
  C  C405  1  0.95241274  0.59932805  0.80973141  1
  H  H406  1  0.81670811  0.82772655  0.91597035  1
  H  H407  1  0.97294735  0.98573321  0.85949417  1
  H  H408  1  0.70925233  0.89585940  0.82818144  1
  C  C409  1  0.77920060  0.81006242  0.86516241  1
  C  C410  1  0.55917868  0.65578913  0.77674077  1
  C  C411  1  0.53499109  0.70690661  0.83349428  1
  C  C412  1  0.82253802  0.54613918  0.76371265  1
  C  C413  1  0.75919329  0.72931268  0.77132858  1
  C  C414  1  0.69095560  0.99874794  0.79456849  1
  N  N415  1  0.68258707  0.82881777  0.75692559  1
