# generated using pymatgen
data_CuH11(C4O)4
_symmetry_space_group_name_H-M   'P 1'
_cell_length_a   14.36139000
_cell_length_b   12.14001016
_cell_length_c   36.71215330
_cell_angle_alpha   90.00000000
_cell_angle_beta   90.00000000
_cell_angle_gamma   90.00000000
_symmetry_Int_Tables_number   1
_chemical_formula_structural   CuH11(C4O)4
_chemical_formula_sum   'Cu16 H176 C256 O64'
_cell_volume   6400.66922782
_cell_formula_units_Z   16
loop_
 _symmetry_equiv_pos_site_id
 _symmetry_equiv_pos_as_xyz
  1  'x, y, z'
loop_
 _atom_site_type_symbol
 _atom_site_label
 _atom_site_symmetry_multiplicity
 _atom_site_fract_x
 _atom_site_fract_y
 _atom_site_fract_z
 _atom_site_occupancy
  Cu  Cu0  1  0.35026720  0.32256018  0.22122245  1
  C  C1  1  0.46769926  0.23081461  0.00652740  1
  O  O2  1  0.39905432  0.19071871  0.20622980  1
  H  H3  1  0.40643849  0.12034572  0.05238728  1
  C  C4  1  0.43687484  0.30432641  0.03555804  1
  C  C5  1  0.12689807  0.22637908  0.08620218  1
  H  H6  1  0.28288835  0.06547861  0.05059130  1
  C  C7  1  0.08908950  0.08873632  0.13318327  1
  C  C8  1  0.22158113  0.43056233  0.17379949  1
  C  C9  1  0.21886149  0.22663557  0.01589287  1
  C  C10  1  0.16326791  0.25810124  0.15051697  1
  C  C11  1  0.18808945  0.36480123  0.14254447  1
  C  C12  1  0.35476866  0.06328341  0.03789138  1
  C  C13  1  0.14743079  0.33939303  0.07885516  1
  H  H14  1  0.15805981  0.23131139  0.18003031  1
  C  C15  1  0.46743825  0.28883638  0.07099529  1
  H  H16  1  0.43159960  0.19056976  0.14059831  1
  C  C17  1  0.13095419  0.19236564  0.12128569  1
  C  C18  1  0.11704971  0.38443375  0.04284854  1
  H  H19  1  0.10139738  0.17295694  0.06402412  1
  O  O20  1  0.03885098  0.03080826  0.11271968  1
  C  C21  1  0.15408488  0.32974845  0.01065990  1
  O  O22  1  0.43900183  0.44059969  0.21828410  1
  C  C23  1  0.17883500  0.40729347  0.10751503  1
  H  H24  1  0.47326284  0.37653202  0.12392462  1
  O  O25  1  0.08733714  0.07398552  0.16686741  1
  H  H26  1  0.39825283  0.43512713  0.08956883  1
  H  H27  1  0.38487200  0.36735634  0.03040350  1
  O  O28  1  0.16094914  0.09210228  0.23123035  1
  C  C29  1  0.42389654  0.35823636  0.10270053  1
  H  H30  1  0.35906345  0.31972471  0.11617045  1
  C  C31  1  0.48295208  0.15729882  0.21182631  1
  O  O32  1  0.24067536  0.38962601  0.20425045  1
  H  H33  1  0.25179670  0.21806185  0.04265983  1
  C  C34  1  0.47086795  0.48306567  0.24689168  1
  H  H35  1  0.35432232  0.09690000  0.00963211  1
  H  H36  1  0.17069888  0.15747478  0.01059458  1
  H  H37  1  0.00998256  0.36212733  0.11817676  1
  O  O38  1  0.02498782  0.02086177  0.00311276  1
  H  H39  1  0.20273372  0.49525028  0.10519929  1
  C  C40  1  0.06727224  0.48670080  0.03613836  1
  C  C41  1  0.23420829  0.20871836  0.35876819  1
  C  C42  1  0.08791073  0.17966294  0.39273079  1
  C  C43  1  0.15240100  0.12304717  0.29389915  1
  H  H44  1  0.19646101  0.21372976  0.43863656  1
  C  C45  1  0.02910690  0.09675716  0.44912070  1
  C  C46  1  0.28492718  0.20392830  0.32564985  1
  C  C47  1  0.07138042  0.29021629  0.40526142  1
  C  C48  1  0.10506580  0.39714419  0.38660475  1
  C  C49  1  0.14505898  0.16431791  0.35776929  1
  C  C50  1  0.10299408  0.12124296  0.32659626  1
  O  O51  1  0.42441210  0.25576356  0.35341045  1
  H  H52  1  0.14860887  0.45574852  0.40389628  1
  H  H53  1  0.26097139  0.24704904  0.38380896  1
  C  C54  1  0.00940253  0.20801114  0.46044553  1
  C  C55  1  0.24459916  0.15877227  0.29459932  1
  O  O56  1  0.42263372  0.25672163  0.29349946  1
  C  C57  1  0.02373851  0.30609323  0.43890066  1
  H  H58  1  0.40889811  0.06694598  0.36732374  1
  H  H59  1  0.15549259  0.17050179  0.48199390  1
  C  C60  1  0.32557390  0.04678179  0.43660392  1
  H  H61  1  0.03983073  0.44250326  0.37719386  1
  C  C62  1  0.28564245  0.08862023  0.46819216  1
  C  C63  1  0.22139760  0.18822886  0.46611865  1
  H  H64  1  0.00628660  0.38822165  0.44835973  1
  H  H65  1  0.03197423  0.09300076  0.32607637  1
  H  H66  1  0.31092624  0.08007642  0.41013378  1
  C  C67  1  0.38349153  0.24686338  0.32574094  1
  H  H68  1  0.28181953  0.15879825  0.26762277  1
  C  C69  1  0.11143000  0.08664223  0.25935523  1
  C  C70  1  0.06916766  0.08330908  0.41371234  1
  H  H71  1  0.25269236  0.26187620  0.48058065  1
  H  H72  1  0.15028729  0.38352098  0.36287336  1
  O  O73  1  0.02499392  0.06212181  0.25961639  1
  H  H74  1  0.01838280  0.02206711  0.46631196  1
  C  C75  1  0.44597503  0.00137504  0.30276930  1
  H  H76  1  0.40473790  0.07792740  0.30861966  1
  H  H77  1  0.06328248  0.37181303  0.50506975  1
  C  C78  1  0.30578309  0.02901461  0.50190272  1
  Cu  Cu79  1  0.08061950  0.23667488  0.72241949  1
  C  C80  1  0.47088210  0.12910198  0.59895080  1
  C  C81  1  0.16601070  0.23032364  0.60886606  1
  O  O82  1  0.16333003  0.22949745  0.64445686  1
  H  H83  1  0.40459885  0.11633359  0.58307793  1
  O  O84  1  0.06763529  0.39384043  0.73482708  1
  H  H85  1  0.25147636  0.07465544  0.64457404  1
  O  O86  1  0.13115313  0.29937444  0.58992551  1
  C  C87  1  0.25520984  0.05812090  0.61494383  1
  C  C88  1  0.21299233  0.13290662  0.59065867  1
  H  H89  1  0.19731071  0.20252735  0.53572552  1
  Cu  Cu90  1  0.15702521  0.35221584  0.66970088  1
  C  C91  1  0.27315149  0.04155389  0.53866235  1
  C  C92  1  0.22182352  0.13129148  0.55275406  1
  H  H93  1  0.45088812  0.10220594  0.62797414  1
  C  C94  1  0.11552027  0.47347961  0.72700633  1
  O  O95  1  0.14774468  0.47709864  0.69451230  1
  H  H96  1  0.05960105  0.44813173  0.58421992  1
  H  H97  1  0.02098537  0.07467887  0.64221507  1
  H  H98  1  0.49198956  0.21630616  0.59704058  1
  O  O99  1  0.43332828  0.49126798  0.74463386  1
  H  H100  1  0.18364033  0.33793237  0.95039565  1
  C  C101  1  0.47880934  0.19577800  0.94165625  1
  H  H102  1  0.16480241  0.39369287  0.82253023  1
  C  C103  1  0.36158237  0.33733298  0.85878147  1
  C  C104  1  0.26900769  0.28083180  0.80635699  1
  H  H105  1  0.06487109  0.01841754  0.77341818  1
  C  C106  1  0.41224082  0.41704292  0.84050738  1
  H  H107  1  0.23487400  0.46660921  0.89721342  1
  C  C108  1  0.20399499  0.20833618  0.78553707  1
  H  H109  1  0.12999779  0.04059223  0.90114323  1
  C  C110  1  0.28918356  0.27440914  0.84354633  1
  H  H111  1  0.46607203  0.47098200  0.85258978  1
  C  C112  1  0.45735842  0.24395299  0.90613153  1
  C  C113  1  0.07624158  0.43198549  0.90386190  1
  O  O114  1  0.16683386  0.12602899  0.80074711  1
  C  C115  1  0.38602759  0.42451263  0.80294732  1
  C  C116  1  0.14461595  0.36929564  0.97513857  1
  C  C117  1  0.34933194  0.38586794  0.92983289  1
  H  H118  1  0.25234156  0.21501856  0.86016168  1
  H  H119  1  0.31864351  0.37458341  0.98801244  1
  H  H120  1  0.04479729  0.47447325  0.79456552  1
  C  C121  1  0.31772868  0.35780365  0.78629492  1
  C  C122  1  0.10340277  0.37083138  0.83971444  1
  C  C123  1  0.36179502  0.34360321  0.96496465  1
  C  C124  1  0.08878101  0.46581809  0.86673135  1
  H  H125  1  0.05782671  0.34601402  0.91103672  1
  C  C126  1  0.38537221  0.32011362  0.89905044  1
  H  H127  1  0.11439579  0.28563381  0.85359400  1
  C  C128  1  0.43366834  0.25904585  0.96904788  1
  H  H129  1  0.03953737  0.36142822  0.82163661  1
  H  H130  1  0.47723267  0.44470548  0.97226202  1
  H  H131  1  0.44670503  0.15368935  0.85608772  1
  C  C132  1  0.28293680  0.48107175  0.92166033  1
  H  H133  1  0.27818603  0.21738007  0.99699394  1
  H  H134  1  0.30696920  0.36299896  0.75647108  1
  O  O135  1  0.19032156  0.23420626  0.75328255  1
  C  C136  1  0.08889466  0.46544569  0.97057661  1
  O  O137  1  0.24463781  0.00034577  0.85073621  1
  C  C138  1  0.04359723  0.02122808  0.96993719  1
  O  O139  1  0.05524051  0.55901120  0.18739338  1
  C  C140  1  0.43881464  0.89060829  0.06294215  1
  H  H141  1  0.35313686  0.60048652  0.20320470  1
  H  H142  1  0.42422080  0.61754312  0.04046553  1
  C  C143  1  0.00901962  0.52563883  0.21510512  1
  H  H144  1  0.06635728  0.54176141  0.09434553  1
  Cu  Cu145  1  0.15593930  0.66079951  0.18171798  1
  Cu  Cu146  1  0.17553436  0.99453898  0.19099061  1
  O  O147  1  0.26238220  0.75388596  0.18034693  1
  O  O148  1  0.23276302  0.53356881  0.16837931  1
  C  C149  1  0.45139468  0.77427496  0.06390666  1
  C  C150  1  0.37708533  0.64124539  0.22678580  1
  C  C151  1  0.29204824  0.81015758  0.20650563  1
  O  O152  1  0.06780862  0.78280852  0.19010327  1
  H  H153  1  0.47432747  0.94486377  0.08365667  1
  H  H154  1  0.43217480  0.77086029  0.14040786  1
  C  C155  1  0.38401414  0.93862847  0.03539080  1
  O  O156  1  0.26902851  0.90756934  0.21356222  1
  C  C157  1  0.34767577  0.74831475  0.23373733  1
  C  C158  1  0.41027681  0.70395996  0.03868935  1
  O  O159  1  0.03956173  0.54197229  0.24605277  1
  O  O160  1  0.00995356  0.83045293  0.13738220  1
  C  C161  1  0.04645767  0.52218411  0.00064370  1
  H  H162  1  0.16179927  0.92823478  0.01230913  1
  C  C163  1  0.34439586  0.86128473  0.00929067  1
  C  C164  1  0.02720665  0.55136416  0.06944116  1
  H  H165  1  0.02628835  0.63856826  0.06459530  1
  C  C166  1  0.35283563  0.74368921  0.01045536  1
  C  C167  1  0.36371623  0.79773194  0.26764739  1
  H  H168  1  0.11909160  0.95787322  0.37386565  1
  C  C169  1  0.11991544  0.64111983  0.33287119  1
  H  H170  1  0.19809951  0.63522924  0.47603176  1
  C  C171  1  0.03597455  0.71606286  0.47147605  1
  C  C172  1  0.42175434  0.74868386  0.29326296  1
  C  C173  1  0.40263173  0.89490797  0.46842970  1
  C  C174  1  0.46271953  0.64659026  0.28471905  1
  C  C175  1  0.33960199  0.57022766  0.42742714  1
  H  H176  1  0.32935820  0.87546869  0.27136374  1
  C  C177  1  0.43416988  0.80373185  0.32916048  1
  H  H178  1  0.45735639  0.53600913  0.40655019  1
  C  C179  1  0.18102463  0.63820635  0.44684617  1
  C  C180  1  0.41495152  0.97764782  0.36649788  1
  C  C181  1  0.42756581  0.91908066  0.33449538  1
  H  H182  1  0.17771527  0.95194796  0.41745310  1
  O  O183  1  0.40072968  0.53350635  0.39278483  1
  C  C184  1  0.41705258  0.91156391  0.39860818  1
  C  C185  1  0.43314246  0.79662829  0.39789282  1
  C  C186  1  0.09595993  0.68506310  0.43764697  1
  C  C187  1  0.15531231  0.87990331  0.47995307  1
  C  C188  1  0.24261898  0.60600718  0.41871234  1
  C  C189  1  0.06583350  0.81293528  0.49006581  1
  C  C190  1  0.07056533  0.68699021  0.40042928  1
  C  C191  1  0.21944733  0.60857352  0.38223557  1
  O  O192  1  0.04950902  0.67976155  0.32001519  1
  H  H193  1  0.27218767  0.58353689  0.36182911  1
  H  H194  1  0.16575291  0.61383862  0.28700832  1
  C  C195  1  0.43398006  0.62454594  0.35978977  1
  H  H196  1  0.41433523  0.96677075  0.27573858  1
  C  C197  1  0.13038450  0.64957492  0.37261021  1
  C  C198  1  0.10532044  0.96858811  0.40437672  1
  H  H199  1  0.37977104  0.59858127  0.34051341  1
  O  O200  1  0.36642092  0.55423488  0.45703039  1
  C  C201  1  0.44010845  0.74637174  0.36316462  1
  H  H202  1  0.44700367  0.82085362  0.46926223  1
  O  O203  1  0.18806650  0.59508436  0.31147174  1
  H  H204  1  0.42272446  0.74639609  0.42275104  1
  H  H205  1  0.00129684  0.72457460  0.39576900  1
  C  C206  1  0.38463204  0.95299049  0.43498628  1
  H  H207  1  0.05658851  0.90358790  0.41412821  1
  H  H208  1  0.18747942  0.84147068  0.45568665  1
  H  H209  1  0.14521721  0.96754656  0.47683090  1
  C  C210  1  0.43419805  0.59235989  0.25353067  1
  C  C211  1  0.29766049  0.96678669  0.60191668  1
  C  C212  1  0.18816459  0.93582483  0.72188791  1
  H  H213  1  0.09078307  0.89244945  0.66249982  1
  H  H214  1  0.04929997  0.90057742  0.54117031  1
  O  O215  1  0.39696067  0.82219025  0.61603766  1
  O  O216  1  0.23514473  0.87196098  0.69884175  1
  O  O217  1  0.37524632  0.94166677  0.66178917  1
  Cu  Cu218  1  0.36243372  0.86279825  0.70416736  1
  C  C219  1  0.37881659  0.88676377  0.53914648  1
  C  C220  1  0.35504768  0.90436407  0.62746184  1
  H  H221  1  0.24594749  0.63387519  0.72482275  1
  H  H222  1  0.37338998  0.79365215  0.54065378  1
  C  C223  1  0.01840990  0.83999555  0.52282392  1
  C  C224  1  0.04870404  0.91504542  0.68678905  1
  H  H225  1  0.23797081  0.87439842  0.55749719  1
  C  C226  1  0.08943278  0.95370459  0.71851691  1
  H  H227  1  0.44765133  0.91464422  0.54916913  1
  C  C228  1  0.29386402  0.93620824  0.56175739  1
  H  H229  1  0.20369850  0.86279392  0.50226984  1
  O  O230  1  0.35321195  0.77450788  0.74562173  1
  O  O231  1  0.22504884  0.98341266  0.74706897  1
  C  C232  1  0.03498839  0.99534087  0.74757938  1
  C  C233  1  0.37211338  0.94039277  0.50160529  1
  O  O234  1  0.30766160  0.85447354  0.79935189  1
  H  H235  1  0.26456984  0.71375353  0.96079093  1
  H  H236  1  0.09717866  0.68639116  0.94531080  1
  O  O237  1  0.38524656  0.95606198  0.87058581  1
  H  H238  1  0.17082830  0.82078198  0.89556501  1
  C  C239  1  0.14748129  0.97982653  0.95622305  1
  C  C240  1  0.12930290  0.60769771  0.81985356  1
  H  H241  1  0.32678485  0.55675676  0.91493857  1
  C  C242  1  0.10342380  0.78724543  0.88412515  1
  H  H243  1  0.22672597  0.73542634  0.83732338  1
  C  C244  1  0.09994990  0.66164718  0.88653996  1
  C  C245  1  0.23785396  0.69449819  0.77937407  1
  H  H246  1  0.10107790  0.82037321  0.85549364  1
  C  C247  1  0.09250824  0.62727622  0.92358239  1
  H  H248  1  0.24851977  0.61788438  0.99304011  1
  C  C249  1  0.09933677  0.58047129  0.85764512  1
  C  C250  1  0.19828103  0.68650832  0.81392845  1
  C  C251  1  0.32775840  0.92383973  0.94196142  1
  C  C252  1  0.19528556  0.93857500  0.98503078  1
  C  C253  1  0.30386673  0.78591423  0.77375072  1
  H  H254  1  0.04352086  0.82560687  0.89754675  1
  C  C255  1  0.08580977  0.51221496  0.93133483  1
  C  C256  1  0.17592705  0.99827270  0.92144608  1
  C  C257  1  0.09563713  0.54219122  0.79003105  1
  C  C258  1  0.26867376  0.96491018  0.91434010  1
  C  C259  1  0.13906591  0.54972185  0.75719455  1
  H  H260  1  0.40346360  0.90884564  0.93647584  1
  C  C261  1  0.28993997  0.90703127  0.97744135  1
  O  O262  1  0.48766559  0.57470886  0.79432051  1
  Cu  Cu263  1  0.23453655  0.98511029  0.80026857  1
  C  C264  1  0.30467017  0.97315360  0.87618281  1
  C  C265  1  0.20922919  0.62893486  0.75073396  1
  Cu  Cu266  1  0.48912293  0.72582280  0.79140453  1
  C  C267  1  0.43460863  0.50363838  0.77940693  1
  C  C268  1  0.30477948  0.67017433  0.98171085  1
  H  H269  1  0.35581734  0.61575900  0.96667935  1
  H  H270  1  0.24433641  0.50608711  0.94641218  1
  C  C271  1  0.57082343  0.17211969  0.11599693  1
  H  H272  1  0.88822865  0.43261564  0.00447740  1
  H  H273  1  0.71193705  0.13740084  0.09771690  1
  C  C274  1  0.68794765  0.40479525  0.11507513  1
  C  C275  1  0.54213627  0.14450679  0.17926269  1
  C  C276  1  0.67717084  0.40247690  0.07705578  1
  C  C277  1  0.78148965  0.37562990  0.12709735  1
  H  H278  1  0.65172587  0.49816677  0.16495218  1
  C  C279  1  0.63642178  0.11903634  0.18412779  1
  C  C280  1  0.66510254  0.13549972  0.12078349  1
  C  C281  1  0.63514821  0.03224250  0.05157035  1
  C  C282  1  0.79720359  0.09185554  0.16307370  1
  C  C283  1  0.73979805  0.40627183  0.01416447  1
  C  C284  1  0.56704536  0.13307911  0.04968162  1
  C  C285  1  0.69896273  0.11383973  0.15530468  1
  C  C286  1  0.75304127  0.37712353  0.05392730  1
  O  O287  1  0.85285746  0.06898883  0.13724174  1
  H  H288  1  0.65544027  0.10895161  0.21183727  1
  C  C289  1  0.61782528  0.44691445  0.14379285  1
  C  C290  1  0.78240406  0.38512102  0.23248727  1
  C  C291  1  0.80440293  0.40044117  0.16653220  1
  H  H292  1  0.68433812  0.32333558  0.19202299  1
  C  C293  1  0.75132123  0.36687798  0.19716816  1
  C  C294  1  0.94868988  0.30061118  0.12149947  1
  H  H295  1  0.88836404  0.29814360  0.04689756  1
  H  H296  1  0.61049101  0.42473619  0.06531120  1
  C  C297  1  0.83999278  0.33276046  0.06577254  1
  O  O298  1  0.82295498  0.09005081  0.19577481  1
  H  H299  1  0.93478827  0.28506452  0.15185357  1
  Cu  Cu300  1  0.92553510  0.08990823  0.22732213  1
  C  C301  1  0.85591515  0.33742057  0.10374880  1
  C  C302  1  0.53496185  0.20189951  0.07904744  1
  H  H303  1  0.58926125  0.37943054  0.01643339  1
  H  H304  1  0.97126047  0.22185305  0.11077799  1
  H  H305  1  0.58432522  0.38261416  0.16067262  1
  C  C306  1  0.88823413  0.45898741  0.17321132  1
  C  C307  1  0.86786596  0.43778354  0.23910046  1
  C  C308  1  0.91857555  0.47069344  0.20912160  1
  H  H309  1  0.70495913  0.05971350  0.04227763  1
  C  C310  1  0.53336750  0.14503591  0.01422698  1
  O  O311  1  0.51533146  0.14868353  0.24293216  1
  H  H312  1  0.93143800  0.49272659  0.15128243  1
  C  C313  1  0.50628460  0.16890486  0.14471624  1
  C  C314  1  0.64653419  0.41039086  0.00034588  1
  H  H315  1  0.56066022  0.49344326  0.13094818  1
  C  C316  1  0.63947076  0.04142344  0.43153588  1
  C  C317  1  0.83750424  0.18271812  0.39750228  1
  H  H318  1  0.87866836  0.25676112  0.30900886  1
  H  H319  1  0.85935502  0.10152123  0.49482875  1
  H  H320  1  0.56893460  0.02800436  0.37874976  1
  C  C321  1  0.87699535  0.37248132  0.36859813  1
  O  O322  1  0.84320964  0.11705089  0.26455866  1
  C  C323  1  0.72335854  0.35007046  0.26260899  1
  H  H324  1  0.84595848  0.22376977  0.42290942  1
  Cu  Cu325  1  0.53595917  0.27441252  0.27545744  1
  O  O326  1  0.65109478  0.29529549  0.25393345  1
  C  C327  1  0.85227058  0.20844267  0.33199936  1
  C  C328  1  0.85609949  0.25036161  0.36744470  1
  O  O329  1  0.89809027  0.42368979  0.33810741  1
  O  O330  1  0.74006845  0.37819115  0.29497183  1
  O  O331  1  0.88291638  0.41790561  0.39767831  1
  H  H332  1  0.89525715  0.45669467  0.26550580  1
  C  C333  1  0.57818099  0.08847829  0.40129129  1
  C  C334  1  0.81227390  0.10475776  0.32888493  1
  C  C335  1  0.78944451  0.07769387  0.39226230  1
  C  C336  1  0.96111691  0.23598179  0.49589056  1
  C  C337  1  0.77613732  0.04129802  0.35620195  1
  H  H338  1  0.51862140  0.03384230  0.46729404  1
  O  O339  1  0.52005295  0.42984238  0.26961640  1
  C  C340  1  0.80258272  0.05724868  0.29058719  1
  H  H341  1  0.60541979  0.16755753  0.39112801  1
  H  H342  1  0.50342391  0.10439461  0.41141128  1
  C  C343  1  0.73837083  0.03021386  0.42581066  1
  C  C344  1  0.59309592  0.01221816  0.46384645  1
  H  H345  1  0.52209123  0.02001962  0.30112226  1
  H  H346  1  0.89619045  0.49528072  0.48063061  1
  C  C347  1  0.62581239  0.11558648  0.73143039  1
  C  C348  1  0.76901865  0.38157812  0.66758172  1
  C  C349  1  0.99967935  0.33026580  0.51396846  1
  H  H350  1  0.50881292  0.10390618  0.52606876  1
  H  H351  1  0.76617481  0.13607554  0.58791688  1
  H  H352  1  0.69316108  0.16381255  0.54942621  1
  C  C353  1  0.71784729  0.39729593  0.63533238  1
  C  C354  1  0.74306541  0.36090752  0.60160643  1
  C  C355  1  0.88424420  0.17085967  0.50994014  1
  H  H356  1  0.74763655  0.41773575  0.69414730  1
  C  C357  1  0.76538370  0.13598229  0.55777765  1
  H  H358  1  0.69462626  0.37190360  0.57869079  1
  C  C359  1  0.85409243  0.32770611  0.66527487  1
  C  C360  1  0.88189064  0.29976043  0.56255511  1
  C  C361  1  0.60094257  0.04515106  0.66930329  1
  C  C362  1  0.90691837  0.29977176  0.69754926  1
  H  H363  1  0.90380099  0.11170469  0.64272998  1
  C  C364  1  0.53777223  0.04226058  0.58343958  1
  C  C365  1  0.85043207  0.20379031  0.54340374  1
  H  H366  1  0.96069241  0.27158572  0.62406667  1
  O  O367  1  0.61779070  0.46852838  0.68067971  1
  O  O368  1  0.87213399  0.31681615  0.72787024  1
  C  C369  1  0.88926941  0.30300937  0.63024192  1
  C  C370  1  0.95655978  0.06336781  0.62660825  1
  C  C371  1  0.83387547  0.32186446  0.59887765  1
  C  C372  1  0.60196483  0.02680561  0.70761297  1
  O  O373  1  0.65485330  0.20493716  0.71830305  1
  C  C374  1  0.96196103  0.35724748  0.54914328  1
  H  H375  1  0.61844512  0.12285216  0.65838928  1
  H  H376  1  0.76735499  0.04864734  0.55119665  1
  Cu  Cu377  1  0.74889327  0.29346394  0.74137755  1
  C  C378  1  0.55408973  0.05055676  0.54484569  1
  O  O379  1  0.98186611  0.23974496  0.69330275  1
  C  C380  1  0.62487569  0.45281244  0.64510065  1
  H  H381  1  0.94200707  0.45525997  0.59921217  1
  O  O382  1  0.56381341  0.45971150  0.62335469  1
  C  C383  1  0.98716099  0.45533973  0.57476245  1
  H  H384  1  0.96508021  0.11164324  0.60015528  1
  Cu  Cu385  1  0.52770315  0.49149557  0.71259122  1
  C  C386  1  0.68691737  0.47933744  0.90144630  1
  O  O387  1  0.70211794  0.37256839  0.77722634  1
  O  O388  1  0.61618560  0.09200082  0.76453990  1
  C  C389  1  0.70975727  0.46509614  0.94139245  1
  H  H390  1  0.56397569  0.09430945  0.99197440  1
  O  O391  1  0.72626617  0.25042687  0.82122819  1
  O  O392  1  0.79527990  0.01414220  0.77493520  1
  Cu  Cu393  1  0.72464750  0.13029778  0.79166733  1
  C  C394  1  0.63446777  0.44236345  0.96415869  1
  H  H395  1  0.74020337  0.32258613  0.88313776  1
  C  C396  1  0.80426529  0.47274998  0.95516171  1
  C  C397  1  0.70512670  0.39916374  0.87526774  1
  C  C398  1  0.88454931  0.02841332  0.77665542  1
  C  C399  1  0.70859989  0.34774743  0.81054959  1
  H  H400  1  0.54248496  0.24968912  0.85483662  1
  O  O401  1  0.92176818  0.06589630  0.80265466  1
  O  O402  1  0.99834483  0.07196080  0.94768224  1
  C  C403  1  0.69099160  0.42897037  0.83853433  1
  C  C404  1  0.53278579  0.45806809  0.94957694  1
  C  C405  1  0.81686588  0.43501622  0.99195523  1
  H  H406  1  0.52362653  0.38950642  0.92954404  1
  H  H407  1  0.55299474  0.12291203  0.88395134  1
  H  H408  1  0.52459792  0.12680755  0.94705645  1
  H  H409  1  0.92801253  0.44085387  0.92512916  1
  C  C410  1  0.50504019  0.19058963  0.87293939  1
  H  H411  1  0.95462153  0.51926012  0.07380215  1
  H  H412  1  0.83181606  0.68907448  0.09562095  1
  Cu  Cu413  1  0.94124812  0.95714077  0.13411364  1
  C  C414  1  0.55819487  0.78341650  0.19667560  1
  C  C415  1  0.74785004  0.70805458  0.17173916  1
  C  C416  1  0.66659464  0.71015872  0.14373798  1
  H  H417  1  0.62296091  0.70709360  0.04983288  1
  C  C418  1  0.90899290  0.75386804  0.18285495  1
  H  H419  1  0.95357425  0.75560261  0.23700132  1
  C  C420  1  0.52429993  0.73543112  0.09218618  1
  H  H421  1  0.84370429  0.77302029  0.13029737  1
  H  H422  1  0.50093225  0.85120687  0.19914013  1
  C  C423  1  0.80873203  0.69823811  0.23294727  1
  H  H424  1  0.67175798  0.64123271  0.21893845  1
  C  C425  1  0.73621884  0.67826734  0.20747159  1
  C  C426  1  0.68108184  0.68317655  0.10583941  1
  C  C427  1  0.77345089  0.62734629  0.09380995  1
  H  H428  1  0.76507133  0.59951831  0.06454519  1
  C  C429  1  0.61454488  0.71039228  0.07915119  1
  C  C430  1  0.83341011  0.74918358  0.15976429  1
  C  C431  1  0.89604437  0.73781880  0.22008752  1
  H  H432  1  0.79393686  0.55135488  0.10886359  1
  C  C433  1  0.57615476  0.74380960  0.15638100  1
  H  H434  1  0.62457208  0.81289162  0.20657713  1
  C  C435  1  0.99972650  0.79224649  0.16876271  1
  H  H436  1  0.53925692  0.70639168  0.21233761  1
  C  C437  1  0.50147108  0.75013859  0.13021700  1
  H  H438  1  0.61644165  0.96457280  0.03134953  1
  H  H439  1  0.63965245  0.99568037  0.08046814  1
  C  C440  1  0.95459246  0.65709661  0.48306071  1
  O  O441  1  0.74112872  0.60875292  0.28608064  1
  C  C442  1  0.88524894  0.91776375  0.44431634  1
  O  O443  1  0.87684716  0.69152323  0.28786706  1
  C  C444  1  0.80341758  0.66558682  0.27086922  1
  C  C445  1  0.74694853  0.94370381  0.48624517  1
  C  C446  1  0.65225056  0.97452008  0.49297014  1
  C  C447  1  0.91992068  0.55922554  0.46143609  1
  Cu  Cu448  1  0.96946630  0.58267130  0.28997555  1
  Cu  Cu449  1  0.81137534  0.50649533  0.31237272  1
  O  O450  1  0.76264012  0.97321146  0.28542842  1
  H  H451  1  0.86147397  0.58244215  0.44344893  1
  H  H452  1  0.88235625  0.83380240  0.42913762  1
  H  H453  1  0.92336076  0.90486980  0.47059023  1
  C  C454  1  0.78733916  0.96614173  0.45198476  1
  H  H455  1  0.73441664  0.96571096  0.34738953  1
  H  H456  1  0.92569922  0.97175963  0.42669013  1
  H  H457  1  0.51131662  0.60778683  0.30424062  1
  H  H458  1  0.50458035  0.60171071  0.34988266  1
  H  H459  1  0.97703765  0.52651452  0.44120536  1
  C  C460  1  0.92281398  0.90912383  0.58361792  1
  C  C461  1  0.54581036  0.72260804  0.71382503  1
  H  H462  1  0.69830320  0.80929497  0.54015289  1
  C  C463  1  0.71685750  0.82715697  0.61559068  1
  C  C464  1  0.55376626  0.84846703  0.65914603  1
  C  C465  1  0.93627194  0.93962764  0.62053243  1
  H  H466  1  0.97334358  0.53300444  0.56082306  1
  C  C467  1  0.57942957  0.95516917  0.64712107  1
  H  H468  1  0.70357643  0.84803700  0.64374223  1
  C  C469  1  0.91139827  0.79641157  0.57531437  1
  C  C470  1  0.61429243  0.96504636  0.53161050  1
  C  C471  1  0.58759735  0.91718217  0.71923497  1
  O  O472  1  0.51570209  0.64177176  0.69832059  1
  C  C473  1  0.92636193  0.85960293  0.64901049  1
  C  C474  1  0.91475914  0.74533715  0.63907284  1
  C  C475  1  0.58385329  0.96254580  0.60530877  1
  H  H476  1  0.98109341  0.59760128  0.65863496  1
  H  H477  1  0.71942014  0.73623767  0.61141032  1
  C  C478  1  0.65400626  0.87571269  0.55160820  1
  H  H479  1  0.78785399  0.85850824  0.61090589  1
  C  C480  1  0.94883300  0.90632091  0.68612685  1
  C  C481  1  0.64925578  0.88680654  0.59004756  1
  C  C482  1  0.90974151  0.68980541  0.51497699  1
  C  C483  1  0.89975896  0.71125047  0.60233058  1
  H  H484  1  0.84597632  0.64041480  0.52280618  1
  C  C485  1  0.56232732  0.83166156  0.69655794  1
  H  H486  1  0.89251718  0.62570718  0.59316846  1
  H  H487  1  0.81361521  0.93936309  0.70927729  1
  H  H488  1  0.53755970  0.77886418  0.64264516  1
  C  C489  1  0.93945377  0.77921778  0.53562918  1
  C  C490  1  0.88969965  0.94565152  0.71342299  1
  H  H491  1  0.93660499  0.96793367  0.56289395  1
  C  C492  1  0.92047423  0.64896045  0.66686464  1
  H  H493  1  0.85228907  0.59785040  0.66472724  1
  H  H494  1  0.93415560  0.67458258  0.69757790  1
  O  O495  1  0.56446027  0.71845689  0.74807728  1
  C  C496  1  0.94019522  0.98599329  0.74373938  1
  H  H497  1  0.60614208  0.90382339  0.74732072  1
  H  H498  1  0.78173576  0.90302311  0.51008229  1
  C  C499  1  0.65681412  0.58512699  0.89195521  1
  H  H500  1  0.64767124  0.64860677  0.91224429  1
  C  C501  1  0.61689999  0.73087019  0.85199526  1
  O  O502  1  0.59885151  0.78465808  0.87906236  1
  H  H503  1  0.66122147  0.55682077  0.79902394  1
  O  O504  1  0.59420629  0.76484489  0.81944695  1
  C  C505  1  0.64930263  0.61181804  0.85527681  1
  C  C506  1  0.66847098  0.53597121  0.82797195  1
  H  H507  1  0.85961165  0.54093818  0.90303747  1
  H  H508  1  0.52548895  0.53704777  0.93377874  1
  C  C509  1  0.88322202  0.51221084  0.93043313  1
  H  H510  1  0.92629605  0.58085315  0.94483063  1
  H  H511  1  0.99876938  0.59107739  0.99685505  1
