# generated using pymatgen
data_ZnH13(C3O)5
_symmetry_space_group_name_H-M   'P 1'
_cell_length_a   14.84690877
_cell_length_b   13.82963390
_cell_length_c   34.60327364
_cell_angle_alpha   90.00000000
_cell_angle_beta   90.00000000
_cell_angle_gamma   90.00000000
_symmetry_Int_Tables_number   1
_chemical_formula_structural   ZnH13(C3O)5
_chemical_formula_sum   'Zn18 H234 C270 O90'
_cell_volume   7104.99719304
_cell_formula_units_Z   18
loop_
 _symmetry_equiv_pos_site_id
 _symmetry_equiv_pos_as_xyz
  1  'x, y, z'
loop_
 _atom_site_type_symbol
 _atom_site_label
 _atom_site_symmetry_multiplicity
 _atom_site_fract_x
 _atom_site_fract_y
 _atom_site_fract_z
 _atom_site_occupancy
  C  C0  1  0.47025776  0.03470759  0.17086276  1
  O  O1  1  0.24799645  0.27546610  0.04169671  1
  H  H2  1  0.42559085  0.07930634  0.23312389  1
  C  C3  1  0.17706791  0.42766314  0.20706891  1
  H  H4  1  0.06765925  0.21910136  0.14149220  1
  C  C5  1  0.39261654  0.12088602  0.10002600  1
  H  H6  1  0.21943755  0.36993699  0.19465641  1
  O  O7  1  0.41265235  0.09716561  0.17651423  1
  C  C8  1  0.08342190  0.38372912  0.20582311  1
  O  O9  1  0.30154353  0.29572498  0.09898454  1
  C  C10  1  0.33768840  0.14623171  0.06850824  1
  C  C11  1  0.29298964  0.24655175  0.07054037  1
  H  H12  1  0.46302987  0.23242607  0.02751134  1
  C  C13  1  0.44377514  0.03279305  0.09615114  1
  H  H14  1  0.16652469  0.26246165  0.16491793  1
  H  H15  1  0.01466049  0.34400312  0.08897124  1
  Zn  Zn16  1  0.45693173  0.24607967  0.20374195  1
  C  C17  1  0.26440727  0.18207692  0.21401602  1
  C  C18  1  0.10795989  0.28350020  0.14543707  1
  C  C19  1  0.32352170  0.09081659  0.03593474  1
  C  C20  1  0.33447130  0.23541705  0.23096720  1
  H  H21  1  0.39865541  0.16624002  0.12516298  1
  H  H22  1  0.26706874  0.14526501  0.18590854  1
  H  H23  1  0.13788708  0.29918317  0.11619858  1
  O  O24  1  0.45817345  0.40122604  0.20720085  1
  O  O25  1  0.03812461  0.10042742  0.24134010  1
  C  C26  1  0.18336478  0.17692528  0.23792001  1
  H  H27  1  0.07532242  0.01846951  0.19076635  1
  O  O28  1  0.11995648  0.07274732  0.18898717  1
  C  C29  1  0.10743088  0.11792082  0.22428416  1
  H  H30  1  0.03255146  0.43193753  0.21733129  1
  H  H31  1  0.05773570  0.43483426  0.14519551  1
  C  C32  1  0.05456427  0.36755554  0.16439031  1
  H  H33  1  0.08006538  0.31605194  0.22451077  1
  O  O34  1  0.00891692  0.01230101  0.00698420  1
  H  H35  1  0.20055424  0.45044509  0.23532235  1
  H  H36  1  0.48286255  0.10720210  0.03629169  1
  O  O37  1  0.34039335  0.48960373  0.00515728  1
  C  C38  1  0.37569564  0.00814663  0.03435433  1
  C  C39  1  0.49625399  0.16807316  0.01597039  1
  H  H40  1  0.17672064  0.49022995  0.18684718  1
  H  H41  1  0.27120414  0.11236152  0.01486185  1
  C  C42  1  0.23599895  0.33162098  0.32805999  1
  H  H43  1  0.34725742  0.39155999  0.40859082  1
  H  H44  1  0.04709589  0.45182670  0.29126110  1
  C  C45  1  0.41007684  0.00196356  0.38988032  1
  H  H46  1  0.09777945  0.35951893  0.31504565  1
  H  H47  1  0.38815564  0.32722899  0.27683630  1
  C  C48  1  0.17743130  0.22012692  0.27467570  1
  C  C49  1  0.35488374  0.02099385  0.28270270  1
  C  C50  1  0.24670592  0.28116100  0.28905325  1
  H  H51  1  0.39854098  0.15856144  0.40124376  1
  H  H52  1  0.11282237  0.21526891  0.28919445  1
  C  C53  1  0.32900022  0.28663437  0.26609567  1
  C  C54  1  0.31344718  0.33859339  0.35334535  1
  C  C55  1  0.47111092  0.32311904  0.37660020  1
  C  C56  1  0.15223759  0.36886737  0.33616671  1
  C  C57  1  0.37932726  0.22075555  0.42067009  1
  C  C58  1  0.29007168  0.38623400  0.38800806  1
  C  C59  1  0.20582384  0.42257420  0.39656689  1
  C  C60  1  0.26454913  0.44898827  0.46511441  1
  H  H61  1  0.31814002  0.39642663  0.46294264  1
  C  C62  1  0.42346600  0.06186931  0.26447673  1
  H  H63  1  0.36694501  0.19221943  0.45192800  1
  H  H64  1  0.43069277  0.36835320  0.43636068  1
  H  H65  1  0.30929012  0.23914306  0.41149120  1
  C  C66  1  0.45475583  0.30219370  0.41953995  1
  C  C67  1  0.12959697  0.41948031  0.37065500  1
  O  O68  1  0.39519816  0.31113422  0.34394712  1
  C  C69  1  0.41728264  0.02243949  0.34863954  1
  O  O70  1  0.05394806  0.46303544  0.37867204  1
  C  C71  1  0.48130727  0.00772323  0.41565053  1
  C  C72  1  0.19961838  0.46746001  0.43559315  1
  H  H73  1  0.48115842  0.40254622  0.37201037  1
  C  C74  1  0.48543976  0.00609114  0.45539297  1
  C  C75  1  0.49168396  0.06433922  0.33008232  1
  C  C76  1  0.49357819  0.08547551  0.29083156  1
  O  O77  1  0.06429976  0.18918586  0.49653217  1
  C  C78  1  0.37571856  0.11838567  0.61188225  1
  O  O79  1  0.36309872  0.10601412  0.64678281  1
  O  O80  1  0.31053001  0.35209999  0.70614376  1
  H  H81  1  0.11754488  0.07268453  0.72785805  1
  C  C82  1  0.32521819  0.42045482  0.68453226  1
  Zn  Zn83  1  0.33840512  0.33511052  0.60629545  1
  H  H84  1  0.08117473  0.24075229  0.55325416  1
  C  C85  1  0.30804283  0.43386661  0.53372118  1
  O  O86  1  0.21134198  0.25803096  0.59925350  1
  Zn  Zn87  1  0.30998469  0.20144817  0.69137601  1
  O  O88  1  0.40608602  0.20093431  0.60129828  1
  O  O89  1  0.17995948  0.22697746  0.65904479  1
  H  H90  1  0.05531688  0.11807716  0.50970910  1
  H  H91  1  0.07025443  0.35707339  0.63074391  1
  O  O92  1  0.29103016  0.45726344  0.56883122  1
  O  O93  1  0.34915558  0.35996940  0.52771574  1
  Zn  Zn94  1  0.26460782  0.07417268  0.53022626  1
  H  H95  1  0.18585931  0.47808325  0.73318486  1
  O  O96  1  0.38129449  0.41459704  0.65714342  1
  C  C97  1  0.34355458  0.05545053  0.58025550  1
  C  C98  1  0.15567875  0.22918869  0.62476253  1
  C  C99  1  0.06321922  0.19813275  0.61269767  1
  H  H100  1  0.47114136  0.06036157  0.54221212  1
  H  H101  1  0.49755602  0.46693360  0.72507285  1
  C  C102  1  0.06580537  0.43882808  0.62438678  1
  H  H103  1  0.12484622  0.47091927  0.63880991  1
  O  O104  1  0.26683149  0.12247119  0.74087289  1
  C  C105  1  0.40009240  0.03898074  0.54501770  1
  C  C106  1  0.07483333  0.47378961  0.58095723  1
  C  C107  1  0.03553922  0.21114900  0.57565260  1
  H  H108  1  0.02697953  0.15319377  0.67281074  1
  C  C109  1  0.00075445  0.26886539  0.71858633  1
  H  H110  1  0.07060096  0.24109814  0.72028921  1
  H  H111  1  0.14366905  0.45588483  0.56944122  1
  O  O112  1  0.07022322  0.00230982  0.51193002  1
  C  C113  1  0.00403519  0.16717280  0.64321134  1
  H  H114  1  0.00074880  0.46504153  0.63705706  1
  C  C115  1  0.25686341  0.00943899  0.58427487  1
  H  H116  1  0.20861617  0.01969175  0.61089788  1
  O  O117  1  0.46240806  0.01795157  0.74525128  1
  H  H118  1  0.03887436  0.48760085  0.50366105  1
  C  C119  1  0.25167883  0.48557909  0.50225239  1
  Zn  Zn120  1  0.29691133  0.33484832  0.98827855  1
  C  C121  1  0.47232186  0.11750048  0.87961528  1
  C  C122  1  0.08679125  0.09365186  0.75565059  1
  C  C123  1  0.02719077  0.18548822  0.99308519  1
  C  C124  1  0.13888377  0.13740177  0.78384024  1
  O  O125  1  0.43906395  0.32403047  0.95206094  1
  C  C126  1  0.44745178  0.20483450  0.89605971  1
  C  C127  1  0.23892489  0.15092806  0.77388706  1
  O  O128  1  0.28483049  0.19829696  0.79530069  1
  O  O129  1  0.20312566  0.38361028  0.95003247  1
  C  C130  1  0.08749097  0.25317108  0.97671160  1
  H  H131  1  0.33851987  0.21285050  0.95503135  1
  C  C132  1  0.46097988  0.25352465  0.93286184  1
  H  H133  1  0.14847259  0.23343797  0.96036005  1
  O  O134  1  0.09956885  0.06106616  0.96028183  1
  Zn  Zn135  1  0.02002635  0.33722935  0.88198355  1
  O  O136  1  0.20853522  0.38065169  0.84757997  1
  C  C137  1  0.12598954  0.41987763  0.96076009  1
  C  C138  1  0.10230320  0.17569840  0.81679245  1
  C  C139  1  0.06376298  0.34931181  0.98355372  1
  O  O140  1  0.10026988  0.49955560  0.95129324  1
  H  H141  1  0.29267440  0.10826382  0.94707898  1
  H  H142  1  0.14392362  0.21727835  0.83830063  1
  Zn  Zn143  1  0.38303503  0.17835597  0.84097894  1
  C  C144  1  0.04424751  0.07873155  0.98609564  1
  O  O145  1  0.16269044  0.40868336  0.78364833  1
  O  O146  1  0.28283880  0.17115587  0.96208300  1
  C  C147  1  0.18527961  0.39535892  0.81515921  1
  C  C148  1  0.00892902  0.16329481  0.82200101  1
  H  H149  1  0.02467118  0.39037030  0.75995117  1
  H  H150  1  0.45904329  0.15314277  0.98729399  1
  H  H151  1  0.41486405  0.65963546  0.19831155  1
  C  C152  1  0.13211398  0.61170947  0.12312324  1
  C  C153  1  0.21473043  0.60015915  0.00558183  1
  C  C154  1  0.10036435  0.59664701  0.05378542  1
  H  H155  1  0.47624869  0.90945811  0.05631438  1
  C  C156  1  0.28404755  0.66531256  0.16567082  1
  H  H157  1  0.09610290  0.74777554  0.21672223  1
  C  C158  1  0.03188805  0.71935105  0.22750428  1
  C  C159  1  0.02519816  0.61383728  0.17034484  1
  H  H160  1  0.19972655  0.62356154  0.11172345  1
  C  C161  1  0.18085094  0.55863660  0.03963812  1
  C  C162  1  0.36409570  0.71347026  0.18594892  1
  H  H163  1  0.37895960  0.60746574  0.12159119  1
  C  C164  1  0.35868445  0.94067780  0.00007662  1
  O  O165  1  0.18755031  0.64264582  0.18729490  1
  C  C166  1  0.32482302  0.58070080  0.14211523  1
  H  H167  1  0.23829683  0.71996898  0.15141320  1
  C  C168  1  0.05381917  0.66474677  0.03030645  1
  C  C169  1  0.12049744  0.61997091  0.16317659  1
  C  C170  1  0.06875864  0.58671923  0.09562964  1
  C  C171  1  0.49685112  0.99940334  0.13119159  1
  H  H172  1  0.33779273  0.74778849  0.21337827  1
  C  C173  1  0.43951245  0.97607746  0.06185412  1
  H  H174  1  0.43828806  0.74579526  0.13169386  1
  H  H175  1  0.27170293  0.53482783  0.12610458  1
  H  H176  1  0.36073725  0.53830050  0.16482837  1
  H  H177  1  0.35512000  0.83307234  0.14297521  1
  H  H178  1  0.46204187  0.83007092  0.17040364  1
  C  C179  1  0.40845205  0.78590349  0.15693179  1
  H  H180  1  0.22384286  0.50571484  0.05602730  1
  O  O181  1  0.39181781  0.85868341  0.00031399  1
  H  H182  1  0.25328650  0.96416324  0.46076029  1
  C  C183  1  0.34349167  0.68189726  0.47238576  1
  C  C184  1  0.35992338  0.78633543  0.34534297  1
  H  H185  1  0.34481295  0.83494980  0.36869528  1
  H  H186  1  0.25491402  0.61798187  0.39105052  1
  C  C187  1  0.06036778  0.65744151  0.48686745  1
  C  C188  1  0.14847540  0.65681280  0.35140451  1
  C  C189  1  0.31741597  0.98821615  0.40610938  1
  C  C190  1  0.23819082  0.68449523  0.37329090  1
  C  C191  1  0.34276108  0.99646463  0.32176948  1
  C  C192  1  0.13785181  0.54370137  0.44357662  1
  H  H193  1  0.22947874  0.74620255  0.39495527  1
  O  O194  1  0.24663639  0.97603071  0.38870279  1
  C  C195  1  0.31127552  0.70782427  0.34294995  1
  C  C196  1  0.06002742  0.85349983  0.27286444  1
  Zn  Zn197  1  0.22885324  0.97043411  0.26795192  1
  O  O198  1  0.04709731  0.90416385  0.30207766  1
  H  H199  1  0.09097902  0.56740815  0.41979567  1
  H  H200  1  0.27181524  0.66713762  0.46469659  1
  H  H201  1  0.13510303  0.70835802  0.32802947  1
  C  C202  1  0.46519464  0.78735711  0.44312578  1
  H  H203  1  0.32027129  0.66194907  0.31697754  1
  C  C204  1  0.13510928  0.58319814  0.48070989  1
  H  H205  1  0.09126798  0.65963314  0.37115841  1
  H  H206  1  0.38527795  0.67827495  0.41224492  1
  H  H207  1  0.15478866  0.58347694  0.33924563  1
  H  H208  1  0.28156256  0.95576878  0.33216583  1
  C  C209  1  0.41802106  0.68588419  0.44131992  1
  H  H210  1  0.02465831  0.57334207  0.30278921  1
  H  H211  1  0.40931490  0.80864475  0.32316447  1
  H  H212  1  0.41509863  0.85185318  0.44323813  1
  C  C213  1  0.00309451  0.76565158  0.26110888  1
  O  O214  1  0.01448430  0.67372858  0.45956760  1
  H  H215  1  0.46409256  0.62243662  0.44204117  1
  C  C216  1  0.31823343  0.98063574  0.44725532  1
  C  C217  1  0.39290064  0.98890102  0.47135473  1
  O  O218  1  0.12563817  0.87021921  0.25082291  1
  O  O219  1  0.04583696  0.69938526  0.52001132  1
  C  C220  1  0.20971646  0.94780789  0.55116387  1
  H  H221  1  0.42069012  0.80057065  0.62822918  1
  H  H222  1  0.28502721  0.72330144  0.69578242  1
  O  O223  1  0.12229409  0.76997223  0.73874202  1
  O  O224  1  0.12456119  0.75888662  0.60484741  1
  H  H225  1  0.24686301  0.93965986  0.73715906  1
  O  O226  1  0.25522816  0.71023061  0.58267784  1
  C  C227  1  0.26586698  0.56755553  0.64860927  1
  H  H228  1  0.27847732  0.85407223  0.50565940  1
  C  C229  1  0.19407343  0.70547167  0.60508981  1
  C  C230  1  0.12941214  0.59406371  0.69901548  1
  C  C231  1  0.13300528  0.65672583  0.66707994  1
  H  H232  1  0.08860885  0.71957101  0.66230000  1
  Zn  Zn233  1  0.10471275  0.82852632  0.54381674  1
  C  C234  1  0.20187918  0.63818378  0.64056596  1
  C  C235  1  0.05410493  0.60866841  0.72909884  1
  C  C236  1  0.12066546  0.98000107  0.53763579  1
  C  C237  1  0.05880774  0.70189287  0.74677401  1
  H  H238  1  0.31933510  0.56097703  0.62937789  1
  C  C239  1  0.44622672  0.78870330  0.65938755  1
  H  H240  1  0.18542607  0.58845641  0.54177052  1
  C  C241  1  0.28587187  0.91963009  0.52133584  1
  C  C242  1  0.18964079  0.55727882  0.51165723  1
  H  H243  1  0.41562353  0.83552075  0.71968819  1
  H  H244  1  0.06485955  0.55331783  0.57901437  1
  H  H245  1  0.32715008  0.72214494  0.53344873  1
  H  H246  1  0.38735517  0.92184063  0.68431025  1
  O  O247  1  0.44936042  0.65121810  0.73436708  1
  H  H248  1  0.24901358  0.84358906  0.70935780  1
  H  H249  1  0.25814428  0.81639711  0.65845421  1
  C  C250  1  0.38944981  0.84461345  0.69108354  1
  C  C251  1  0.29115162  0.80119483  0.68851570  1
  C  C252  1  0.19212470  0.51768479  0.70690381  1
  H  H253  1  0.44481342  0.67969482  0.69025286  1
  O  O254  1  0.44122636  0.68802402  0.66018552  1
  C  C255  1  0.35992240  0.98363726  0.51086551  1
  C  C256  1  0.26522402  0.50864492  0.68096965  1
  C  C257  1  0.37240037  0.70829203  0.50828452  1
  H  H258  1  0.44362453  0.72841372  0.51378072  1
  H  H259  1  0.20423042  0.84646789  0.82588680  1
  C  C260  1  0.06388726  0.91981233  0.81972796  1
  C  C261  1  0.30370667  0.56203960  0.99117120  1
  C  C262  1  0.23683153  0.90557094  0.76609705  1
  C  C263  1  0.37749802  0.73463812  0.84661277  1
  H  H264  1  0.17328175  0.58352889  0.78123477  1
  O  O265  1  0.27048850  0.76394692  0.91136467  1
  H  H266  1  0.22849803  0.64969002  0.86111970  1
  C  C267  1  0.42352376  0.88583771  0.79856010  1
  C  C268  1  0.13732093  0.83758132  0.81286430  1
  C  C269  1  0.17651970  0.67229558  0.98455580  1
  C  C270  1  0.21069867  0.63656315  0.79879164  1
  C  C271  1  0.34701276  0.82795510  0.85416423  1
  Zn  Zn272  1  0.17954667  0.92592236  0.95082843  1
  C  C273  1  0.36366560  0.90389941  0.83083617  1
  H  H274  1  0.11507997  0.76478559  0.81914852  1
  H  H275  1  0.29230872  0.85711522  0.77205883  1
  H  H276  1  0.08915998  0.89962867  0.75999725  1
  O  O277  1  0.06691326  0.82765091  0.95072486  1
  C  C278  1  0.07550063  0.66396235  0.88938340  1
  C  C279  1  0.09484222  0.63145546  0.85379190  1
  H  H280  1  0.35659482  0.67584442  0.86489867  1
  C  C281  1  0.28085330  0.83322520  0.88900122  1
  H  H282  1  0.21202959  0.70237823  0.95849539  1
  Zn  Zn283  1  0.38005346  0.74010597  0.95476147  1
  C  C284  1  0.43298713  0.71851217  0.81420115  1
  O  O285  1  0.23662495  0.90951946  0.89096306  1
  H  H286  1  0.12886111  0.68715438  0.90993640  1
  H  H287  1  0.33706672  0.97707330  0.83697568  1
  O  O288  1  0.33899070  0.60408927  0.96185285  1
  H  H289  1  0.18170567  0.70767322  0.79034280  1
  C  C290  1  0.44414483  0.96005730  0.76828167  1
  C  C291  1  0.49886910  0.56655744  0.83154023  1
  H  H292  1  0.45034581  0.90537622  0.88842795  1
  H  H293  1  0.24123214  0.96387202  0.78738162  1
  C  C294  1  0.19187977  0.60296169  0.84086524  1
  O  O295  1  0.31276068  0.97429411  0.97268156  1
  H  H296  1  0.03724179  0.61725381  0.83474933  1
  H  H297  1  0.49691473  0.59552884  0.86089539  1
  C  C298  1  0.03721930  0.78313382  0.97924567  1
  H  H299  1  0.28011256  0.62634360  0.79052955  1
  C  C300  1  0.14605044  0.85169020  0.76878278  1
  H  H301  1  0.20906946  0.52451701  0.84718690  1
  H  H302  1  0.00227035  0.89923250  0.80234613  1
  H  H303  1  0.04257540  0.92395339  0.85032321  1
  H  H304  1  0.07916830  0.99243294  0.80760466  1
  C  C305  1  0.45598181  0.79421661  0.78798156  1
  C  C306  1  0.46552949  0.62113853  0.80121765  1
  C  C307  1  0.46846624  0.59255764  0.76029812  1
  H  H308  1  0.00544895  0.67898706  0.89889732  1
  C  C309  1  0.09129714  0.70371952  0.99807195  1
  C  C310  1  0.73014027  0.28415351  0.22851566  1
  O  O311  1  0.56418486  0.16480227  0.23908387  1
  C  C312  1  0.94113752  0.34475750  0.09313286  1
  C  C313  1  0.59536671  0.18519437  0.00975846  1
  C  C314  1  0.88682540  0.32483468  0.06050495  1
  H  H315  1  0.67977982  0.32492215  0.09867574  1
  C  C316  1  0.90608397  0.34861447  0.13043044  1
  H  H317  1  0.62894677  0.11531622  0.00322932  1
  C  C318  1  0.53030262  0.44493740  0.21314825  1
  H  H319  1  0.92007251  0.15436053  0.03275058  1
  H  H320  1  0.83964715  0.24175462  0.18992476  1
  C  C321  1  0.75653688  0.32468462  0.09616250  1
  C  C322  1  0.66828278  0.40756448  0.16870019  1
  C  C323  1  0.94261480  0.30833286  0.02417233  1
  C  C324  1  0.62823047  0.39980585  0.20418594  1
  H  H325  1  0.57748854  0.13361050  0.08019161  1
  H  H326  1  0.61855873  0.29554548  0.05618545  1
  H  H327  1  0.68130397  0.07877841  0.06007473  1
  C  C328  1  0.65024847  0.14777914  0.07309999  1
  C  C329  1  0.64658259  0.22921032  0.04195919  1
  H  H330  1  0.97160059  0.46363454  0.00790929  1
  O  O331  1  0.73799356  0.27899679  0.03046782  1
  O  O332  1  0.95362913  0.35817435  0.16259577  1
  C  C333  1  0.65267982  0.34025558  0.23617010  1
  H  H334  1  0.68815997  0.17103660  0.09935458  1
  C  C335  1  0.79238927  0.30618988  0.05910276  1
  C  C336  1  0.95824590  0.20792326  0.01764512  1
  C  C337  1  0.75033423  0.35484235  0.16388932  1
  C  C338  1  0.77894217  0.28489697  0.19251898  1
  H  H339  1  0.77643511  0.45858709  0.02348485  1
  C  C340  1  0.80881204  0.34624072  0.12858075  1
  C  C341  1  0.99068886  0.38237660  0.00465951  1
  H  H342  1  0.63716782  0.45277683  0.14573973  1
  C  C343  1  0.55108189  0.48030797  0.10163824  1
  H  H344  1  0.81777312  0.48147409  0.09707015  1
  O  O345  1  0.54717168  0.39835838  0.09228953  1
  C  C346  1  0.66672303  0.13401105  0.43519804  1
  H  H347  1  0.99193092  0.27922674  0.43737843  1
  H  H348  1  0.59776896  0.16631965  0.42593836  1
  O  O349  1  0.61840077  0.43723141  0.31955409  1
  C  C350  1  0.85982116  0.28073584  0.34820610  1
  C  C351  1  0.72660685  0.11171860  0.39789841  1
  H  H352  1  0.61588835  0.29685920  0.37495526  1
  C  C353  1  0.92467647  0.24074065  0.31732927  1
  H  H354  1  0.73288984  0.17846238  0.37920304  1
  O  O355  1  0.91356906  0.25639061  0.28251427  1
  O  O356  1  0.64312832  0.15115387  0.29270440  1
  H  H357  1  0.94499259  0.22752600  0.39511165  1
  H  H358  1  0.82516137  0.49925126  0.34827045  1
  H  H359  1  0.96703414  0.38722695  0.35065447  1
  H  H360  1  0.69615844  0.19212504  0.45237275  1
  C  C361  1  0.85873228  0.30064608  0.45690557  1
  C  C362  1  0.58909004  0.49268817  0.49496304  1
  C  C363  1  0.73843479  0.38439904  0.36483606  1
  C  C364  1  0.79030255  0.30851413  0.48752220  1
  C  C365  1  0.94608469  0.26245452  0.46133252  1
  O  O366  1  0.98037315  0.17617418  0.32775888  1
  H  H367  1  0.78082961  0.35908556  0.30481246  1
  C  C368  1  0.83336257  0.31289896  0.41613037  1
  C  C369  1  0.65927902  0.44617605  0.35079069  1
  C  C370  1  0.88377056  0.27080079  0.38597023  1
  C  C371  1  0.75998714  0.37467479  0.40398103  1
  H  H372  1  0.72232060  0.41624624  0.42516007  1
  C  C373  1  0.78720778  0.33831824  0.33590221  1
  O  O374  1  0.55821968  0.01369617  0.47558865  1
  Zn  Zn375  1  0.99112349  0.04092925  0.29791636  1
  H  H376  1  0.55127865  0.08613184  0.34661115  1
  C  C377  1  0.57096309  0.14011346  0.27343965  1
  C  C378  1  0.55505457  0.26377387  0.36450765  1
  H  H379  1  0.55370475  0.25601647  0.33313927  1
  H  H380  1  0.55757711  0.18776707  0.37696259  1
  O  O381  1  0.71275717  0.34587643  0.48539037  1
  O  O382  1  0.84573455  0.04432172  0.28908095  1
  C  C383  1  0.97298041  0.46870868  0.34662293  1
  H  H384  1  0.61762768  0.34087392  0.26446966  1
  Zn  Zn385  1  0.77751675  0.17302089  0.26629507  1
  H  H386  1  0.59376873  0.47704263  0.46280930  1
  C  C387  1  0.99652878  0.49794111  0.30468746  1
  C  C388  1  0.98076837  0.21869860  0.49519543  1
  H  H389  1  0.90561349  0.48370326  0.41844469  1
  H  H390  1  0.70222911  0.05205926  0.37896155  1
  C  C391  1  0.65445802  0.04021414  0.45796240  1
  H  H392  1  0.79802878  0.09266027  0.40356798  1
  H  H393  1  0.54554749  0.01959977  0.40048839  1
  H  H394  1  0.51719197  0.27897484  0.43543959  1
  C  C395  1  0.73575379  0.03356840  0.48627399  1
  H  H396  1  0.93471492  0.49304511  0.28501915  1
  H  H397  1  0.80709861  0.02796523  0.47199179  1
  H  H398  1  0.99519361  0.47696773  0.71816595  1
  C  C399  1  0.90917651  0.21763501  0.52580264  1
  Zn  Zn400  1  0.80793387  0.11803393  0.66411812  1
  C  C401  1  0.65086925  0.33907819  0.52443297  1
  H  H402  1  0.81116185  0.14607344  0.58695518  1
  H  H403  1  0.58476420  0.23561231  0.56453809  1
  C  C404  1  0.94719416  0.18639345  0.56326983  1
  H  H405  1  0.78896267  0.24721257  0.54665646  1
  H  H406  1  0.57250718  0.35939628  0.71036652  1
  H  H407  1  0.86376526  0.39223983  0.72431424  1
  O  O408  1  0.67245138  0.11969727  0.67289161  1
  C  C409  1  0.63144709  0.19576003  0.68565542  1
  C  C410  1  0.88366404  0.15574873  0.59230030  1
  C  C411  1  0.91686155  0.14731615  0.63135049  1
  O  O412  1  0.82554482  0.43143882  0.63744281  1
  H  H413  1  0.70322104  0.37490968  0.54201326  1
  H  H414  1  0.73236568  0.09795862  0.50534016  1
  O  O415  1  0.60581216  0.25663614  0.66253669  1
  C  C416  1  0.82567369  0.25799146  0.52000596  1
  C  C417  1  0.95005440  0.03352615  0.72389218  1
  C  C418  1  0.99105699  0.43797850  0.51912633  1
  C  C419  1  0.62857436  0.23383578  0.53756114  1
  O  O420  1  0.86765304  0.04970442  0.71841113  1
  C  C421  1  0.99615620  0.42896227  0.55832926  1
  H  H422  1  0.54957087  0.41972709  0.54897987  1
  H  H423  1  0.68761498  0.18644038  0.54613848  1
  H  H424  1  0.58182138  0.19528459  0.51795913  1
  H  H425  1  0.94313604  0.38764197  0.57244112  1
  C  C426  1  0.58044453  0.30983268  0.73557530  1
  C  C427  1  0.79203369  0.47945615  0.61415799  1
  C  C428  1  0.61657624  0.22168776  0.72753148  1
  H  H429  1  0.95333438  0.20730140  0.71587197  1
  H  H430  1  0.99442829  0.30710859  0.69029990  1
  H  H431  1  0.52091643  0.35751184  0.50406194  1
  C  C432  1  0.57380992  0.40252908  0.51888611  1
  H  H433  1  0.93181186  0.40770470  0.50137023  1
  C  C434  1  0.60758743  0.28567398  0.80367705  1
  C  C435  1  0.74476734  0.07923692  0.96043129  1
  C  C436  1  0.99328790  0.08440717  0.76027244  1
  H  H437  1  0.75513607  0.29449202  0.76977510  1
  C  C438  1  0.54106101  0.47728622  0.82635495  1
  C  C439  1  0.90778613  0.24163607  0.88426243  1
  C  C440  1  0.57182151  0.34569898  0.77470753  1
  C  C441  1  0.69859011  0.13771290  0.82224451  1
  C  C442  1  0.97015986  0.21459797  0.85707427  1
  O  O443  1  0.70900877  0.17355743  0.85527548  1
  C  C444  1  0.65932756  0.03069941  0.94232218  1
  O  O445  1  0.84919745  0.41493662  0.88845963  1
  C  C446  1  0.58279016  0.47388552  0.89915574  1
  C  C447  1  0.87929003  0.33088249  0.90347283  1
  C  C448  1  0.64532827  0.19949475  0.79307194  1
  O  O449  1  0.73522759  0.06156306  0.81292476  1
  H  H450  1  0.62092232  0.16091374  0.91337573  1
  C  C451  1  0.60623347  0.08373580  0.91901713  1
  C  C452  1  0.95512166  0.11619926  0.79375621  1
  Zn  Zn453  1  0.84989607  0.11287675  0.87441158  1
  H  H454  1  0.87899036  0.11948001  0.79612391  1
  C  C455  1  0.64788999  0.15903657  0.75642134  1
  O  O456  1  0.75816189  0.16154771  0.94834813  1
  H  H457  1  0.65790123  0.37801536  0.98988534  1
  C  C458  1  0.63283192  0.40072098  0.92503824  1
  H  H459  1  0.86411946  0.32487794  0.93539597  1
  C  C460  1  0.52756559  0.04315577  0.90042229  1
  H  H461  1  0.60556536  0.30202169  0.83483967  1
  O  O462  1  0.57362588  0.43018268  0.85497806  1
  H  H463  1  0.60232583  0.32850013  0.91850155  1
  C  C464  1  0.82880957  0.28071232  0.77188320  1
  H  H465  1  0.99361177  0.27857701  0.78041730  1
  O  O466  1  0.86798546  0.46997828  0.77344625  1
  C  C467  1  0.62632134  0.42941501  0.96880789  1
  C  C468  1  0.97888071  0.32803505  0.75642340  1
  H  H469  1  0.70463076  0.39147956  0.91655281  1
  C  C470  1  0.53653421  0.44264052  0.78621380  1
  H  H471  1  0.84255070  0.27753279  0.80347974  1
  H  H472  1  0.61152012  0.23517218  0.98365313  1
  H  H473  1  0.55404839  0.44064544  0.97635303  1
  O  O474  1  0.79540241  0.04183200  0.98690420  1
  C  C475  1  0.50073781  0.49493993  0.75571594  1
  H  H476  1  0.50979699  0.48402105  0.90660240  1
  H  H477  1  0.51293340  0.22193640  0.95355929  1
  H  H478  1  0.84058997  0.20840946  0.75740283  1
  C  C479  1  0.88160949  0.36580017  0.75427840  1
  H  H480  1  0.67207374  0.08444589  0.75120472  1
  H  H481  1  0.87126655  0.54717245  0.21454348  1
  H  H482  1  0.61274014  0.70764379  0.14481309  1
  C  C483  1  0.64628723  0.90600513  0.22425200  1
  H  H484  1  0.90346176  0.85564682  0.15198861  1
  H  H485  1  0.75422915  0.87460494  0.18722211  1
  C  C486  1  0.90597108  0.61117082  0.22628078  1
  C  C487  1  0.76571236  0.80449384  0.17024633  1
  C  C488  1  0.63098046  0.68460245  0.17490615  1
  H  H489  1  0.76348777  0.58462337  0.01759304  1
  O  O490  1  0.92165070  0.55176398  0.07373397  1
  H  H491  1  0.52850110  0.81080332  0.22940267  1
  C  C492  1  0.76466064  0.63656232  0.09429881  1
  O  O493  1  0.70634503  0.85391090  0.13622168  1
  C  C494  1  0.53177062  0.98734542  0.19639327  1
  H  H495  1  0.61266523  0.60538267  0.17745701  1
  H  H496  1  0.77422867  0.64192074  0.18036300  1
  C  C497  1  0.60430810  0.93137755  0.18372973  1
  H  H498  1  0.89978920  0.79811831  0.19831913  1
  H  H499  1  0.79015916  0.79873574  0.09394459  1
  H  H500  1  0.88882253  0.57072861  0.15087323  1
  H  H501  1  0.80690852  0.74319054  0.04794328  1
  H  H502  1  0.72964721  0.70611699  0.22003575  1
  H  H503  1  0.89053413  0.72828471  0.15346955  1
  C  C504  1  0.86932428  0.79739216  0.16760148  1
  C  C505  1  0.72890190  0.70711164  0.18816344  1
  C  C506  1  0.63612310  0.90266011  0.14728357  1
  C  C507  1  0.81291751  0.73146227  0.07886262  1
  C  C508  1  0.80977569  0.54689816  0.07630138  1
  H  H509  1  0.88729234  0.73147239  0.08369386  1
  H  H510  1  0.77336841  0.63261188  0.12688779  1
  C  C511  1  0.96120039  0.58475834  0.14285221  1
  H  H512  1  0.68895976  0.63801689  0.09170881  1
  H  H513  1  0.58262738  0.72584602  0.19346112  1
  C  C514  1  0.56555187  0.93972365  0.12184863  1
  H  H515  1  0.57091079  0.92529222  0.09040006  1
  C  C516  1  0.97254310  0.57402372  0.10317214  1
  C  C517  1  0.98413917  0.64384163  0.20877926  1
  O  O518  1  0.55712123  0.56050173  0.11148626  1
  C  C519  1  0.75632399  0.52524312  0.03955011  1
  H  H520  1  0.68463312  0.51886613  0.04522319  1
  O  O521  1  0.52615024  0.52929008  0.22624738  1
  H  H522  1  0.99454226  0.70103086  0.04323262  1
  H  H523  1  0.76856502  0.99038506  0.22944674  1
  H  H524  1  0.52493619  0.99589149  0.22856168  1
  C  C525  1  0.72045107  0.94441293  0.24417054  1
  C  C526  1  0.58978995  0.83893302  0.24353294  1
  H  H527  1  0.52721853  0.53714521  0.49682577  1
  C  C528  1  0.88016895  0.66208979  0.26018356  1
  C  C529  1  0.89591431  0.55182045  0.40181455  1
  O  O530  1  0.68660548  0.77103886  0.40857168  1
  H  H531  1  0.89604722  0.76912238  0.30511539  1
  O  O532  1  0.76463537  0.67867774  0.30610127  1
  C  C533  1  0.79196488  0.62967710  0.27795384  1
  C  C534  1  0.67257947  0.86448715  0.30235666  1
  H  H535  1  0.68655967  0.84288662  0.33336968  1
  C  C536  1  0.70602343  0.74920565  0.44115029  1
  H  H537  1  0.65195134  0.97583181  0.43890662  1
  C  C538  1  0.72854221  0.92775711  0.28347523  1
  C  C539  1  0.60211252  0.81653223  0.28350479  1
  O  O540  1  0.55553669  0.72407994  0.33875812  1
  C  C541  1  0.54686362  0.73544220  0.30363106  1
  O  O542  1  0.72510881  0.72713606  0.47214602  1
  Zn  Zn543  1  0.67846188  0.65704201  0.35487792  1
  H  H544  1  0.83494663  0.58799575  0.41314786  1
  Zn  Zn545  1  0.60428468  0.54799583  0.27750689  1
  C  C546  1  0.92331793  0.73476047  0.27963713  1
  O  O547  1  0.74405693  0.56741828  0.26234795  1
  O  O548  1  0.64039132  0.51860850  0.37230979  1
  H  H549  1  0.90310705  0.60128251  0.33953048  1
  H  H550  1  0.96243877  0.58486614  0.40912269  1
  C  C551  1  0.89126641  0.53254279  0.35731095  1
  O  O552  1  0.50454599  0.67944094  0.28330064  1
  H  H553  1  0.51495576  0.79109144  0.41949271  1
  H  H554  1  0.50568808  0.78933557  0.46938399  1
  C  C555  1  0.80704048  0.97296654  0.30834506  1
  O  O556  1  0.83527442  0.95023507  0.33911092  1
  C  C557  1  0.53512314  0.84595687  0.66748253  1
  H  H558  1  0.58981221  0.83264203  0.64664215  1
  H  H559  1  0.56195398  0.83795233  0.69681104  1
  C  C560  1  0.99045349  0.53993738  0.73670746  1
  H  H561  1  0.52147281  0.92393626  0.66666959  1
  O  O562  1  0.75232318  0.52355622  0.59072623  1
  O  O563  1  0.99727178  0.99281708  0.70152497  1
  H  H564  1  0.71183321  0.61145082  0.73180999  1
  H  H565  1  0.64942069  0.53814876  0.50284987  1
  H  H566  1  0.72863612  0.96557277  0.50506692  1
  C  C567  1  0.67550041  0.71395308  0.82215510  1
  O  O568  1  0.84325235  0.87799785  0.92800914  1
  H  H569  1  0.69526637  0.88435778  0.95791487  1
  H  H570  1  0.88121433  0.82045755  0.81682264  1
  C  C571  1  0.64376701  0.93112510  0.94645249  1
  C  C572  1  0.93368476  0.63251751  0.78563424  1
  C  C573  1  0.57326979  0.77940103  0.93529270  1
  C  C574  1  0.88821250  0.66062744  0.82368682  1
  C  C575  1  0.87489318  0.75662756  0.83724772  1
  H  H576  1  0.64486281  0.59120565  0.93087109  1
  H  H577  1  0.84427461  0.70622618  0.93286919  1
  H  H578  1  0.99402148  0.77471140  0.79446606  1
  C  C579  1  0.85077413  0.68907811  0.90186292  1
  H  H580  1  0.57660305  0.83795773  0.83571030  1
  Zn  Zn581  1  0.89555559  0.93777947  0.98066177  1
  C  C582  1  0.50729608  0.94156520  0.90525909  1
  O  O583  1  0.87934606  0.93921478  0.87229238  1
  H  H584  1  0.69382718  0.57134884  0.88375751  1
  C  C585  1  0.67923716  0.72594366  0.77703041  1
  H  H586  1  0.50447826  0.78774247  0.76363043  1
  O  O587  1  0.96147701  0.80254431  0.99322270  1
  C  C588  1  0.85527465  0.59450106  0.88790551  1
  C  C589  1  0.57173299  0.89084241  0.92592050  1
  C  C590  1  0.63207002  0.57239654  0.90121545  1
  C  C591  1  0.85742248  0.76731531  0.87657630  1
  C  C592  1  0.86183312  0.86778016  0.89264226  1
  H  H593  1  0.62486075  0.66437621  0.83000788  1
  H  H594  1  0.69127154  0.87234488  0.82625152  1
  O  O595  1  0.66325207  0.79707099  0.76003289  1
  H  H596  1  0.66212393  0.81077566  0.87173161  1
  C  C597  1  0.70228797  0.62119029  0.76458744  1
  C  C598  1  0.64726240  0.81340471  0.83919268  1
  C  C599  1  0.99309115  0.70670558  0.77608646  1
  C  C600  1  0.87279725  0.58110196  0.84849833  1
  H  H601  1  0.59282610  0.63242915  0.88973021  1
  O  O602  1  0.63538091  0.74629788  0.95235316  1
  C  C603  1  0.92195680  0.54187541  0.76611778  1
  H  H604  1  0.73876995  0.68316612  0.83401922  1
  H  H605  1  0.76292464  0.59032700  0.77835418  1
  H  H606  1  0.64718459  0.56923059  0.77329512  1
  O  O607  1  0.50343873  0.73256412  0.92476066  1
  H  H608  1  0.87865661  0.50932918  0.83639729  1
  C  C609  1  0.84922721  0.50692608  0.91247508  1
  H  H610  1  0.65773380  0.50141292  0.97522441  1
  O  O611  1  0.83578094  0.50272676  0.94524193  1
