# generated using pymatgen
data_ZnH8C6N8O
_symmetry_space_group_name_H-M   'P 1'
_cell_length_a   19.90791321
_cell_length_b   15.19103797
_cell_length_c   11.30368414
_cell_angle_alpha   90.00000000
_cell_angle_beta   90.00000000
_cell_angle_gamma   90.00000000
_symmetry_Int_Tables_number   1
_chemical_formula_structural   ZnH8C6N8O
_chemical_formula_sum   'Zn12 H96 C72 N96 O12'
_cell_volume   3418.48124340
_cell_formula_units_Z   12
loop_
 _symmetry_equiv_pos_site_id
 _symmetry_equiv_pos_as_xyz
  1  'x, y, z'
loop_
 _atom_site_type_symbol
 _atom_site_label
 _atom_site_symmetry_multiplicity
 _atom_site_fract_x
 _atom_site_fract_y
 _atom_site_fract_z
 _atom_site_occupancy
  C  C0  1  0.13258713  0.28873142  0.37075794  1
  C  C1  1  0.02362879  0.42396923  0.22297842  1
  H  H2  1  0.23775309  0.27541877  0.42066249  1
  H  H3  1  0.10801502  0.34297307  0.13731112  1
  N  N4  1  0.09197731  0.28497190  0.29874656  1
  C  C5  1  0.08583902  0.41255554  0.13554420  1
  H  H6  1  0.16084674  0.15653892  0.15575453  1
  H  H7  1  0.19315157  0.48108008  0.15048866  1
  C  C8  1  0.02570238  0.06548329  0.21901578  1
  N  N9  1  0.14094564  0.29242610  0.48369066  1
  H  H10  1  0.01790396  0.19565831  0.46266773  1
  C  C11  1  0.19506082  0.11628240  0.10638968  1
  H  H12  1  0.15748547  0.07688976  0.05274456  1
  N  N13  1  0.06006484  0.03866872  0.30784491  1
  N  N14  1  0.02448137  0.36340124  0.30518374  1
  H  H15  1  0.07623414  0.43260168  0.04487431  1
  C  C16  1  0.20567317  0.28531024  0.49604458  1
  C  C17  1  0.23866547  0.05387654  0.18996349  1
  C  C18  1  0.23781955  0.17182006  0.01842309  1
  C  C19  1  0.13975885  0.47253518  0.18802181  1
  C  C20  1  0.11751676  0.21425387  0.95859918  1
  C  C21  1  0.21305486  0.26132769  0.83858152  1
  C  C22  1  0.11458359  0.09385037  0.58415730  1
  H  H23  1  0.09173354  0.12221887  0.66124222  1
  C  C24  1  0.00354851  0.36763707  0.83745326  1
  C  C25  1  0.15955450  0.03137062  0.58493029  1
  C  C26  1  0.18544981  0.21561037  0.95184188  1
  C  C27  1  0.02980180  0.45023817  0.84435377  1
  O  O28  1  0.18476762  0.26379062  0.72652418  1
  C  C29  1  0.22752068  0.28300182  0.62686142  1
  N  N30  1  0.05860867  0.22006015  0.96005341  1
  H  H31  1  0.02827202  0.31292930  0.78813877  1
  H  H32  1  0.22517483  0.33222539  0.86305324  1
  H  H33  1  0.03288892  0.16582119  0.99457642  1
  H  H34  1  0.03446742  0.29341287  0.53911047  1
  H  H35  1  0.08927016  0.11291121  0.50164814  1
  C  C36  1  0.11038151  0.92908137  0.18566891  1
  H  H37  1  0.14221885  0.95887050  0.36651550  1
  H  H38  1  0.13172725  0.76036121  0.37174099  1
  N  N39  1  0.19820808  0.68031171  0.42908882  1
  O  O40  1  0.06943200  0.80895478  0.44771627  1
  N  N41  1  0.18321025  0.75398999  0.38663153  1
  N  N42  1  0.20960283  0.64029837  0.04484166  1
  H  H43  1  0.15120055  0.88480441  0.15830678  1
  H  H44  1  0.07380063  0.95202755  0.11674901  1
  N  N45  1  0.18976885  0.71538629  0.06100377  1
  H  H46  1  0.06593336  0.59870919  0.01476664  1
  H  H47  1  0.07423387  0.54701951  0.38778847  1
  O  O48  1  0.14056530  0.51514618  0.27789092  1
  C  C49  1  0.10600710  0.97032875  0.29171352  1
  N  N50  1  0.03562158  0.58032036  0.42347630  1
  H  H51  1  0.14650182  0.54242310  0.70656356  1
  C  C52  1  0.17725808  0.80737113  0.69219273  1
  C  C53  1  0.04436903  0.77904090  0.53546145  1
  N  N54  1  0.05303128  0.52069487  0.84968621  1
  N  N55  1  0.12230798  0.96903130  0.87958094  1
  C  C56  1  0.20741328  0.65815402  0.75698287  1
  O  O57  1  0.16653756  0.71302591  0.68972924  1
  C  C58  1  0.20547745  0.97838225  0.61233615  1
  H  H59  1  0.12678440  0.83511678  0.65927329  1
  H  H60  1  0.03377472  0.83292668  0.71001165  1
  H  H61  1  0.18474177  0.82809853  0.78565049  1
  N  N62  1  0.02884407  0.58682727  0.95736236  1
  H  H63  1  0.17914878  0.53939352  0.85491151  1
  N  N64  1  0.04436808  0.83237155  0.89485719  1
  N  N65  1  0.10230064  0.85512351  0.90663507  1
  N  N66  1  0.17843114  0.98208978  0.91526153  1
  H  H67  1  0.21691234  0.83544827  0.51539028  1
  N  N68  1  0.02410448  0.55442752  0.52702721  1
  C  C69  1  0.19168695  0.55568170  0.76320701  1
  H  H70  1  0.06265141  0.70849596  0.55143903  1
  Zn  Zn71  1  0.00860288  0.71277577  0.92616402  1
  C  C72  1  0.23457548  0.83727492  0.60731769  1
  H  H73  1  0.20486045  0.69018531  0.84618563  1
  H  H74  1  0.27292918  0.45260810  0.40305691  1
  N  N75  1  0.26489597  0.40682363  0.03978035  1
  H  H76  1  0.39360726  0.34523473  0.19107568  1
  O  O77  1  0.30140105  0.36740571  0.29822521  1
  C  C78  1  0.33869124  0.33554781  0.17031827  1
  N  N79  1  0.46552266  0.09982365  0.12029857  1
  N  N80  1  0.39296635  0.05758785  0.05162221  1
  H  H81  1  0.40973554  0.10298642  0.25453811  1
  C  C82  1  0.31655320  0.44088688  0.33484312  1
  Zn  Zn83  1  0.44699962  0.47191756  0.09494108  1
  C  C84  1  0.31823596  0.39005909  0.06656873  1
  H  H85  1  0.32470098  0.26383268  0.16390957  1
  N  N86  1  0.45821431  0.11375032  0.22774343  1
  H  H87  1  0.35147788  0.09580580  0.07754073  1
  N  N88  1  0.25336292  0.07736076  0.29978974  1
  N  N89  1  0.36837718  0.43518103  0.01505407  1
  O  O90  1  0.29823605  0.17174461  0.00226105  1
  C  C91  1  0.40079949  0.15519879  0.76833903  1
  N  N92  1  0.30098460  0.48134704  0.78648711  1
  H  H93  1  0.37567060  0.27892821  0.84443947  1
  H  H94  1  0.25279624  0.35076676  0.64621716  1
  N  N95  1  0.35602691  0.41760657  0.69455219  1
  N  N96  1  0.48966334  0.11916172  0.61474277  1
  C  C97  1  0.43836045  0.10277819  0.68345127  1
  N  N98  1  0.33586517  0.43110333  0.59283531  1
  C  C99  1  0.40731784  0.24310033  0.78351167  1
  H  H100  1  0.36253553  0.13006925  0.82931567  1
  H  H101  1  0.43586518  0.28629541  0.72875595  1
  N  N102  1  0.42182497  0.01804588  0.68121095  1
  H  H103  1  0.26374206  0.22382969  0.83580352  1
  H  H104  1  0.26638746  0.23153709  0.64260308  1
  N  N105  1  0.35440598  0.58189102  0.38204337  1
  O  O106  1  0.44904674  0.84614773  0.16133176  1
  C  C107  1  0.48661689  0.89642812  0.08353366  1
  H  H108  1  0.41624400  0.72202772  0.14301433  1
  N  N109  1  0.42067198  0.64964020  0.35200772  1
  N  N110  1  0.30895207  0.94553650  0.29195176  1
  C  C111  1  0.39857130  0.78912946  0.11262285  1
  H  H112  1  0.35145837  0.80726197  0.16469456  1
  N  N113  1  0.45196545  0.61676766  0.26877905  1
  C  C114  1  0.30854340  0.72880905  0.00052532  1
  Zn  Zn115  1  0.27821824  0.61497765  0.49220692  1
  H  H116  1  0.49900691  0.95189230  0.14837653  1
  N  N117  1  0.25909653  0.78322441  0.02352369  1
  N  N118  1  0.42113780  0.51131221  0.25757765  1
  C  C119  1  0.36465162  0.50861748  0.31899771  1
  N  N120  1  0.29740491  0.99998948  0.36900664  1
  N  N121  1  0.26784561  0.97439187  0.16207233  1
  Zn  Zn122  1  0.26229542  0.91831508  0.00448400  1
  N  N123  1  0.34574490  0.82452046  0.69987666  1
  H  H124  1  0.41232556  0.72499859  0.93365921  1
  N  N125  1  0.48790041  0.64218886  0.93983388  1
  H  H126  1  0.45518875  0.89562784  0.88115708  1
  N  N127  1  0.31946734  0.70141120  0.60783741  1
  N  N128  1  0.34809398  0.95868502  0.91924240  1
  Zn  Zn129  1  0.34367848  0.53977918  0.92891456  1
  C  C130  1  0.29934898  0.78199939  0.63372346  1
  N  N131  1  0.41307678  0.74974965  0.73134906  1
  N  N132  1  0.46728263  0.96747923  0.56290554  1
  N  N133  1  0.39901660  0.68383354  0.67467419  1
  Zn  Zn134  1  0.34244783  0.95828793  0.74234588  1
  C  C135  1  0.37905173  0.76967416  0.97935939  1
  H  H136  1  0.37294812  0.83020297  0.92207934  1
  N  N137  1  0.44962499  0.58087900  0.97298121  1
  C  C138  1  0.25355617  0.51220420  0.71790228  1
  N  N139  1  0.29129809  0.64674116  0.99526675  1
  N  N140  1  0.25566314  0.92861151  0.63965266  1
  N  N141  1  0.27073879  0.50392306  0.60584179  1
  H  H142  1  0.25994928  0.66283983  0.72414929  1
  C  C143  1  0.39963929  0.99116931  0.97684089  1
  C  C144  1  0.46282549  0.93859830  0.95915685  1
  H  H145  1  0.47633962  0.52312174  0.52532934  1
  O  O146  1  0.62575019  0.26234589  0.19856755  1
  C  C147  1  0.62363650  0.23243427  0.29339742  1
  C  C148  1  0.62238892  0.13523591  0.33976613  1
  N  N149  1  0.52738655  0.40216452  0.04442213  1
  C  C150  1  0.70481889  0.43343878  0.40384539  1
  H  H151  1  0.64373750  0.09467008  0.26983063  1
  C  C152  1  0.66583009  0.13494399  0.45172734  1
  N  N153  1  0.73037169  0.12312101  0.45163024  1
  H  H154  1  0.57171327  0.11066463  0.35980493  1
  N  N155  1  0.73045675  0.02530192  0.17016575  1
  H  H156  1  0.61056049  0.29111004  0.35606608  1
  H  H157  1  0.62370504  0.28503335  0.04392308  1
  N  N158  1  0.70752191  0.05544115  0.07969359  1
  C  C159  1  0.73249802  0.35341802  0.44636809  1
  N  N160  1  0.67973324  0.49528005  0.36737087  1
  N  N161  1  0.70127442  0.34632460  0.91600635  1
  H  H162  1  0.70715137  0.37431339  0.73595198  1
  N  N163  1  0.70768962  0.39370918  0.64430783  1
  N  N164  1  0.58794687  0.26834906  0.77258925  1
  C  C165  1  0.73336393  0.33657254  0.56592149  1
  Zn  Zn166  1  0.55877404  0.21101020  0.61139853  1
  N  N167  1  0.57963344  0.24860194  0.87653349  1
  N  N168  1  0.73097378  0.28726729  0.86399724  1
  N  N169  1  0.70669445  0.12770474  0.65379740  1
  H  H170  1  0.68965506  0.44443023  0.59143444  1
  N  N171  1  0.64078087  0.14156488  0.56035455  1
  H  H172  1  0.61226664  0.06592614  0.77836799  1
  H  H173  1  0.69853178  0.22891857  0.85964157  1
  H  H174  1  0.55255966  0.46552847  0.75903210  1
  N  N175  1  0.62185877  0.32226208  0.96500259  1
  N  N176  1  0.57624909  0.42020093  0.98540579  1
  C  C177  1  0.50660517  0.47494641  0.58205634  1
  C  C178  1  0.52280111  0.38607212  0.53203434  1
  N  N179  1  0.53640439  0.31617574  0.50375390  1
  N  N180  1  0.50501140  0.02469364  0.52699421  1
  H  H181  1  0.53526069  0.86093431  0.07454893  1
  O  O182  1  0.63846993  0.86115237  0.43019882  1
  H  H183  1  0.69849402  0.96735537  0.46457509  1
  N  N184  1  0.62929554  0.63924660  0.12986565  1
  C  C185  1  0.70335004  0.89395654  0.43826970  1
  C  C186  1  0.57495116  0.73851476  0.29396246  1
  Zn  Zn187  1  0.70479014  0.57402085  0.21564737  1
  C  C188  1  0.59802659  0.71417241  0.15948790  1
  H  H189  1  0.52934822  0.78165650  0.28455746  1
  H  H190  1  0.65857957  0.82736287  0.26025325  1
  C  C191  1  0.63432819  0.79193602  0.34162864  1
  H  H192  1  0.56204602  0.67417598  0.34235677  1
  H  H193  1  0.67317740  0.74093306  0.35980598  1
  N  N194  1  0.59362533  0.76586947  0.06582125  1
  N  N195  1  0.66575281  0.96352743  0.01012259  1
  H  H196  1  0.74499781  0.90897972  0.27021672  1
  N  N197  1  0.57034533  0.84807127  0.78594172  1
  H  H198  1  0.54853363  0.79568440  0.74055975  1
  C  C199  1  0.57388507  0.93256662  0.75664689  1
  H  H200  1  0.70818234  0.82952841  0.79787864  1
  H  H201  1  0.58778281  0.83454950  0.87275525  1
  H  H202  1  0.62802761  0.76396256  0.60917558  1
  C  C203  1  0.63756984  0.97555167  0.92311451  1
  H  H204  1  0.54882212  0.93260793  0.66812010  1
  C  C205  1  0.62576226  0.68739910  0.61614163  1
  N  N206  1  0.62375832  0.70961614  0.94199331  1
  N  N207  1  0.64509989  0.63775664  0.97408024  1
  H  H208  1  0.50444993  0.56899667  0.71961567  1
  O  O209  1  0.57513506  0.65649350  0.58219981  1
  H  H210  1  0.53591519  0.64084043  0.97966564  1
  C  C211  1  0.60650993  0.99999507  0.81875386  1
  H  H212  1  0.67058571  0.65479966  0.66124633  1
  H  H213  1  0.72808786  0.86738321  0.51954612  1
  H  H214  1  0.74732421  0.65493132  0.95821736  1
  C  C215  1  0.51619899  0.50148646  0.69725778  1
  H  H216  1  0.50445810  0.98429777  0.92460638  1
  N  N217  1  0.85433206  0.19025993  0.26316294  1
  N  N218  1  0.92738048  0.01460194  0.42387630  1
  N  N219  1  0.85081880  0.40624323  0.09734818  1
  N  N220  1  0.91210073  0.49104973  0.32783645  1
  Zn  Zn221  1  0.95783356  0.31075647  0.39319781  1
  N  N222  1  0.88707952  0.21533953  0.34676639  1
  N  N223  1  0.90714808  0.42547086  0.38693563  1
  Zn  Zn224  1  0.78367362  0.08801992  0.30153673  1
  N  N225  1  0.79242252  0.40775944  0.13225160  1
  H  H226  1  0.95956508  0.14427889  0.17193404  1
  N  N227  1  0.99258266  0.09421552  0.14258714  1
  N  N228  1  0.97605779  0.47780067  0.21193232  1
  H  H229  1  0.75807620  0.30756214  0.38090064  1
  H  H230  1  0.83712188  0.29046996  0.80673596  1
  C  C231  1  0.87530369  0.41455177  0.70724287  1
  H  H232  1  0.92501945  0.45059781  0.68761283  1
  H  H233  1  0.84490891  0.40689149  0.62219916  1
  N  N234  1  0.99762604  0.24848214  0.51477127  1
  H  H235  1  0.91415836  0.41469402  0.92701570  1
  C  C236  1  0.93289538  0.35599360  0.88158335  1
  C  C237  1  0.88486650  0.32231516  0.77176050  1
  C  C238  1  0.92304862  0.26058733  0.69983513  1
  N  N239  1  0.95177231  0.20907152  0.64616274  1
  H  H240  1  0.84648970  0.45939306  0.76291355  1
  H  H241  1  0.93710843  0.30249165  0.95353779  1
  H  H242  1  0.75508797  0.27291412  0.60687502  1
  N  N243  1  0.75662231  0.11554720  0.59258723  1
  N  N244  1  0.81929796  0.64807057  0.33874526  1
  N  N245  1  0.76300436  0.67128165  0.30715528  1
  C  C246  1  0.95785818  0.83925110  0.16886996  1
  H  H247  1  0.85678484  0.85032961  0.22164989  1
  C  C248  1  0.96255630  0.73839124  0.17924504  1
  N  N249  1  0.97548669  0.68704070  0.09119678  1
  C  C250  1  0.83243340  0.91517638  0.39066567  1
  N  N251  1  0.76346291  0.51309746  0.09580615  1
  C  C252  1  0.88406513  0.85640883  0.13238642  1
  Zn  Zn253  1  0.89505867  0.73226056  0.42800019  1
  H  H254  1  0.77567676  0.73230055  0.13690054  1
  H  H255  1  0.97238752  0.86947464  0.25659130  1
  N  N256  1  0.94797186  0.69320842  0.27992568  1
  H  H257  1  0.76301396  0.79854184  0.33244017  1
  Zn  Zn258  1  0.95916865  0.56289925  0.07515457  1
  H  H259  1  0.94851770  0.62541965  0.31182276  1
  H  H260  1  0.87641504  0.91967682  0.09017250  1
  C  C261  1  0.81176349  0.55463971  0.04079108  1
  C  C262  1  0.76249491  0.87329248  0.35318067  1
  N  N263  1  0.88195703  0.86788637  0.43119862  1
  N  N264  1  0.94730627  0.94276233  0.45348652  1
  C  C265  1  0.82137824  0.72213006  0.08342151  1
  O  O266  1  0.84599449  0.80193916  0.04753414  1
  N  N267  1  0.86832990  0.51428062  0.03868083  1
  H  H268  1  0.85745881  0.69776439  0.15248720  1
  H  H269  1  0.99334189  0.86648888  0.09841631  1
  N  N270  1  0.84312450  0.99862971  0.38015018  1
  H  H271  1  0.96703159  0.87001827  0.60238339  1
  C  C272  1  0.95657186  0.73113360  0.67076813  1
  H  H273  1  0.80274962  0.77004691  0.63960514  1
  N  N274  1  0.75810956  0.79164948  0.67068323  1
  N  N275  1  0.95301974  0.69267217  0.77557432  1
  N  N276  1  0.89186843  0.61426585  0.76503519  1
  N  N277  1  0.86608389  0.61716810  0.66732305  1
  N  N278  1  0.90984097  0.70111611  0.59704277  1
  H  H279  1  0.83259630  0.65841291  0.91096850  1
  O  O280  1  0.90141472  0.94261361  0.74331753  1
  N  N281  1  0.75489314  0.80908493  0.77858137  1
  C  C282  1  0.80161964  0.64616212  0.98903482  1
  C  C283  1  0.99945500  0.81417940  0.63433415  1
  H  H284  1  0.80157248  0.97057560  0.69294415  1
  H  H285  1  0.98480039  0.58143781  0.57443186  1
  H  H286  1  0.87559678  0.97745509  0.58749377  1
  C  C287  1  0.85608088  0.95815036  0.67791205  1
