# generated using pymatgen
data_Zn2H8C15O7
_symmetry_space_group_name_H-M   'P 1'
_cell_length_a   14.00151890
_cell_length_b   17.61684181
_cell_length_c   26.46457277
_cell_angle_alpha   90.00000000
_cell_angle_beta   90.00000000
_cell_angle_gamma   90.00000000
_symmetry_Int_Tables_number   1
_chemical_formula_structural   Zn2H8C15O7
_chemical_formula_sum   'Zn32 H128 C240 O112'
_cell_volume   6527.81883420
_cell_formula_units_Z   16
loop_
 _symmetry_equiv_pos_site_id
 _symmetry_equiv_pos_as_xyz
  1  'x, y, z'
loop_
 _atom_site_type_symbol
 _atom_site_label
 _atom_site_symmetry_multiplicity
 _atom_site_fract_x
 _atom_site_fract_y
 _atom_site_fract_z
 _atom_site_occupancy
  Zn  Zn0  1  0.44188501  0.09603478  0.12404087  1
  O  O1  1  0.01652308  0.24437070  0.13151784  1
  C  C2  1  0.07245846  0.25200097  0.04603253  1
  H  H3  1  0.38418471  0.36863507  0.06511117  1
  C  C4  1  0.13830605  0.22444634  0.00945841  1
  Zn  Zn5  1  0.41921716  0.14484678  0.23121914  1
  H  H6  1  0.29814835  0.17702711  0.16462637  1
  C  C7  1  0.37241269  0.41214613  0.15847051  1
  O  O8  1  0.32851193  0.12698404  0.16922005  1
  O  O9  1  0.04884339  0.04404815  0.13285891  1
  H  H10  1  0.20194864  0.18614364  0.01697795  1
  C  C11  1  0.07754871  0.22564336  0.10075517  1
  O  O12  1  0.38955607  0.42086434  0.20749787  1
  O  O13  1  0.14986576  0.05299059  0.23717953  1
  Zn  Zn14  1  0.01267168  0.23999879  0.21437083  1
  Zn  Zn15  1  0.16232206  0.11433325  0.17453839  1
  O  O16  1  0.15140377  0.19025042  0.11348085  1
  O  O17  1  0.29882630  0.42944623  0.13994871  1
  C  C18  1  0.11748122  0.02646706  0.05206804  1
  C  C19  1  0.45453865  0.36173451  0.08229164  1
  C  C20  1  0.03671365  0.04093020  0.08777879  1
  C  C21  1  0.46403736  0.38291542  0.13189916  1
  O  O22  1  0.16798860  0.22266101  0.22909035  1
  H  H23  1  0.24002528  0.01232053  0.10289012  1
  C  C24  1  0.27621833  0.00203363  0.02316149  1
  H  H25  1  0.16029868  0.00749606  0.21611527  1
  C  C26  1  0.21216075  0.01488424  0.06357080  1
  C  C27  1  0.08963227  0.02649988  0.00073921  1
  C  C28  1  0.22813559  0.31394007  0.40145392  1
  C  C29  1  0.20544254  0.27943557  0.30598262  1
  C  C30  1  0.26598323  0.29884500  0.45409780  1
  O  O31  1  0.46069829  0.48962915  0.29508243  1
  H  H32  1  0.21302280  0.44251125  0.41657133  1
  O  O33  1  0.29383090  0.17836465  0.27164362  1
  C  C34  1  0.19195423  0.36167021  0.29126949  1
  C  C35  1  0.42964934  0.06044341  0.37412329  1
  Zn  Zn36  1  0.10923670  0.32600989  0.35679654  1
  C  C37  1  0.20025928  0.39949275  0.38622562  1
  C  C38  1  0.23516754  0.25601515  0.35733292  1
  O  O39  1  0.01385276  0.23892187  0.48257960  1
  H  H40  1  0.25064760  0.19542362  0.36609133  1
  Zn  Zn41  1  0.05347425  0.03503251  0.29532972  1
  C  C42  1  0.26647266  0.06440077  0.40809403  1
  C  C43  1  0.46765288  0.05552827  0.42344567  1
  H  H44  1  0.25793851  0.06594415  0.49184685  1
  C  C45  1  0.30383485  0.06060886  0.45766446  1
  C  C46  1  0.32988022  0.06023342  0.36620230  1
  O  O47  1  0.13480009  0.08321857  0.35481977  1
  O  O48  1  0.44297450  0.05172549  0.28330702  1
  C  C49  1  0.18771784  0.41973914  0.33207624  1
  C  C50  1  0.16229721  0.07153878  0.39913986  1
  H  H51  1  0.30554923  0.06096872  0.32703820  1
  C  C52  1  0.34585113  0.24895802  0.46057871  1
  C  C53  1  0.40398276  0.05748105  0.46509048  1
  O  O54  1  0.10218500  0.07208849  0.43445753  1
  H  H55  1  0.38462149  0.23191371  0.42506768  1
  H  H56  1  0.20463250  0.37890055  0.25039327  1
  C  C57  1  0.22539329  0.22400665  0.26603324  1
  C  C58  1  0.18881586  0.49976441  0.31686870  1
  C  C59  1  0.48590203  0.05967832  0.32494810  1
  C  C60  1  0.21812175  0.31741423  0.49924962  1
  Zn  Zn61  1  0.31897701  0.32975951  0.69020783  1
  O  O62  1  0.03934339  0.43455492  0.69254304  1
  O  O63  1  0.31377544  0.08350817  0.65308998  1
  C  C64  1  0.32181532  0.48971261  0.69115238  1
  C  C65  1  0.45511376  0.06976309  0.60713147  1
  O  O66  1  0.13851866  0.35114276  0.59409847  1
  H  H67  1  0.35296789  0.21514046  0.58824183  1
  O  O68  1  0.21234582  0.28781632  0.74309402  1
  C  C69  1  0.33128839  0.23628485  0.55123248  1
  O  O70  1  0.46239453  0.31932296  0.66002532  1
  O  O71  1  0.26477853  0.44079603  0.66889577  1
  O  O72  1  0.23509684  0.27496982  0.63608499  1
  Zn  Zn73  1  0.12300178  0.45409591  0.63164887  1
  O  O74  1  0.34399557  0.47163425  0.73534152  1
  C  C75  1  0.25252536  0.28565447  0.54458214  1
  C  C76  1  0.20636854  0.30571223  0.59415709  1
  C  C77  1  0.45599866  0.05780907  0.51580414  1
  H  H78  1  0.32917857  0.08540098  0.56376203  1
  C  C79  1  0.40489164  0.07917715  0.65538752  1
  C  C80  1  0.40677972  0.07141170  0.56203357  1
  O  O81  1  0.06719631  0.03068718  0.54654178  1
  O  O82  1  0.04726795  0.18709206  0.65307484  1
  Zn  Zn83  1  0.11061655  0.20487297  0.71874830  1
  O  O84  1  0.45010088  0.08268092  0.69633898  1
  H  H85  1  0.08784382  0.40273451  0.70849888  1
  O  O86  1  0.07297622  0.00477104  0.72667626  1
  H  H87  1  0.07550774  0.22259627  0.63189572  1
  C  C88  1  0.13441027  0.01025925  0.57412538  1
  O  O89  1  0.13015423  0.02982825  0.61973670  1
  H  H90  1  0.16058470  0.35923047  0.50122675  1
  H  H91  1  0.44664496  0.18510683  0.50876425  1
  C  C92  1  0.38137279  0.22044223  0.50701765  1
  C  C93  1  0.17956822  0.28533244  0.87806424  1
  O  O94  1  0.38922502  0.06246895  0.90118654  1
  H  H95  1  0.26067554  0.12803202  0.94367914  1
  O  O96  1  0.15728540  0.09573668  0.75490993  1
  C  C97  1  0.28286549  0.20860300  0.82493519  1
  C  C98  1  0.11095288  0.03918990  0.76501781  1
  H  H99  1  0.13869012  0.33754850  0.87876682  1
  C  C100  1  0.18355353  0.22942374  0.91610453  1
  C  C101  1  0.30195452  0.16307991  0.86596180  1
  Zn  Zn102  1  0.24926056  0.48797628  0.79753068  1
  C  C103  1  0.37869507  0.10325634  0.86379250  1
  C  C104  1  0.19989461  0.32101337  0.78626024  1
  C  C105  1  0.24844160  0.16885183  0.91024789  1
  H  H106  1  0.32030911  0.20251080  0.78866154  1
  O  O107  1  0.16642281  0.38681931  0.78901030  1
  C  C108  1  0.11737274  0.24995663  0.95919832  1
  C  C109  1  0.21978819  0.26917344  0.83068450  1
  C  C110  1  0.12235082  0.03801401  0.86050165  1
  C  C111  1  0.44833482  0.30644377  0.97162749  1
  C  C112  1  0.03385249  0.29298860  0.94557531  1
  H  H113  1  0.14861896  0.09704255  0.86208090  1
  O  O114  1  0.42637966  0.09939716  0.82377243  1
  H  H115  1  0.38098958  0.27015030  0.89771146  1
  C  C116  1  0.44769889  0.28664622  0.92073455  1
  H  H117  1  0.01341624  0.03782831  0.99101999  1
  H  H118  1  0.01329209  0.29995431  0.90578570  1
  Zn  Zn119  1  0.41507830  0.01997660  0.76464118  1
  H  H120  1  0.38349024  0.30962515  0.99353723  1
  C  C121  1  0.11432520  0.00037154  0.90676082  1
  O  O122  1  0.31494541  0.48472447  0.91845627  1
  C  C123  1  0.09497605  0.00150303  0.81524322  1
  C  C124  1  0.15656249  0.01384183  0.96103485  1
  C  C125  1  0.31104230  0.67666165  0.07312870  1
  C  C126  1  0.39806694  0.79842880  0.10788662  1
  Zn  Zn127  1  0.35064908  0.52052816  0.24191194  1
  O  O128  1  0.39263127  0.62215262  0.21051556  1
  H  H129  1  0.49516266  0.67371107  0.14526957  1
  C  C130  1  0.42359183  0.67649979  0.23937745  1
  C  C131  1  0.41756982  0.78725913  0.05712366  1
  O  O132  1  0.05057772  0.64457216  0.06508730  1
  H  H133  1  0.26978324  0.62747403  0.05839683  1
  C  C134  1  0.33923401  0.76086256  0.14339042  1
  C  C135  1  0.16197543  0.76169519  0.02640720  1
  H  H136  1  0.32349427  0.78375943  0.18227934  1
  C  C137  1  0.22225229  0.81480201  0.00264560  1
  C  C138  1  0.29061941  0.69565196  0.12313264  1
  H  H139  1  0.24798442  0.66205760  0.14855429  1
  H  H140  1  0.14851298  0.76559449  0.06784557  1
  C  C141  1  0.36874374  0.71760523  0.03909194  1
  O  O142  1  0.21348663  0.88772448  0.19380253  1
  C  C143  1  0.05953313  0.64050966  0.01932097  1
  H  H144  1  0.24780571  0.86515409  0.02515411  1
  C  C145  1  0.29419449  0.90060078  0.20084287  1
  Zn  Zn146  1  0.46412131  0.89474177  0.12842195  1
  O  O147  1  0.37438849  0.91749305  0.21029430  1
  C  C148  1  0.37827314  0.99141782  0.03277517  1
  H  H149  1  0.46470035  0.82174757  0.03323271  1
  O  O150  1  0.40364512  0.99821419  0.07858587  1
  O  O151  1  0.08411364  0.71085849  0.34762656  1
  H  H152  1  0.37081118  0.92609291  0.30747745  1
  C  C153  1  0.18773138  0.82629510  0.39978170  1
  C  C154  1  0.33386493  0.90036060  0.38665603  1
  O  O155  1  0.15700579  0.54927181  0.34627955  1
  C  C156  1  0.25508644  0.84835578  0.31352028  1
  O  O157  1  0.10795560  0.76064657  0.27368014  1
  H  H158  1  0.14000398  0.95737185  0.47720500  1
  O  O159  1  0.39481483  0.67648674  0.28359728  1
  C  C160  1  0.18896776  0.81405368  0.34670985  1
  H  H161  1  0.22156333  0.68840118  0.44835234  1
  H  H162  1  0.12635350  0.80822463  0.42316817  1
  H  H163  1  0.25627914  0.83858605  0.27246044  1
  O  O164  1  0.44862825  0.56734696  0.36269431  1
  C  C165  1  0.12484209  0.75627516  0.31995609  1
  C  C166  1  0.26497709  0.86818655  0.42200180  1
  C  C167  1  0.32545486  0.89483739  0.33403535  1
  Zn  Zn168  1  0.01736836  0.59464166  0.34458294  1
  H  H169  1  0.41363745  0.84165916  0.47922039  1
  H  H170  1  0.35288135  0.74975409  0.39928709  1
  C  C171  1  0.36514854  0.72910326  0.43761595  1
  C  C172  1  0.27127358  0.89322715  0.47763016  1
  H  H173  1  0.38597980  0.94092224  0.39898619  1
  O  O174  1  0.20254524  0.51433530  0.27080225  1
  C  C175  1  0.28996138  0.70143350  0.46757432  1
  C  C176  1  0.45223672  0.73503417  0.46298445  1
  H  H177  1  0.04812973  0.66863757  0.48652466  1
  C  C178  1  0.47630120  0.50820907  0.34007282  1
  O  O179  1  0.09464790  0.61560527  0.71920471  1
  C  C180  1  0.36330828  0.55815621  0.66367679  1
  C  C181  1  0.21272939  0.96088075  0.55196421  1
  C  C182  1  0.47198383  0.70609094  0.51088395  1
  C  C183  1  0.02930901  0.69821243  0.52296421  1
  C  C184  1  0.46132908  0.87262635  0.58399900  1
  C  C185  1  0.30506248  0.67601439  0.51771537  1
  C  C186  1  0.35670728  0.58091497  0.61283390  1
  C  C187  1  0.39797428  0.67415650  0.53970879  1
  C  C188  1  0.36835624  0.89563690  0.55116697  1
  C  C189  1  0.29874023  0.93710407  0.57606081  1
  O  O190  1  0.45769039  0.86912617  0.63116893  1
  C  C191  1  0.09791409  0.58759426  0.56186068  1
  C  C192  1  0.40761706  0.64409774  0.59288195  1
  C  C193  1  0.42380875  0.59726084  0.69601647  1
  H  H194  1  0.31464712  0.95744149  0.61528172  1
  H  H195  1  0.24011469  0.65686138  0.53807681  1
  C  C196  1  0.35740979  0.87132559  0.50109288  1
  H  H197  1  0.05545369  0.67934063  0.65181498  1
  C  C198  1  0.46701127  0.68264225  0.62612391  1
  O  O199  1  0.09414118  0.55896755  0.52060303  1
  O  O200  1  0.14015446  0.55611320  0.59975278  1
  O  O201  1  0.25429103  0.89409590  0.71321282  1
  C  C202  1  0.47844311  0.65665050  0.67605286  1
  H  H203  1  0.18841495  0.74532852  0.71669019  1
  H  H204  1  0.43937156  0.57923552  0.73502883  1
  Zn  Zn205  1  0.21581058  0.99899467  0.67972535  1
  C  C206  1  0.05115113  0.66543038  0.56910777  1
  C  C207  1  0.20036952  0.94080656  0.50000309  1
  C  C208  1  0.03575509  0.70372943  0.61531263  1
  H  H209  1  0.30529963  0.54877020  0.58640100  1
  H  H210  1  0.45794588  0.90475270  0.74726202  1
  C  C211  1  0.36922080  0.61950492  0.96484572  1
  H  H212  1  0.12204524  0.63929233  0.92635095  1
  C  C213  1  0.24558099  0.80699458  0.83681299  1
  C  C214  1  0.48308936  0.72129648  0.90837795  1
  H  H215  1  0.26927927  0.85946685  0.85657184  1
  C  C216  1  0.39250259  0.60521120  0.91660495  1
  C  C217  1  0.14846109  0.69113687  0.94444351  1
  C  C218  1  0.44873444  0.65347547  0.88525012  1
  H  H219  1  0.07843976  0.89038681  0.94750721  1
  H  H220  1  0.48230355  0.79052291  0.97228490  1
  O  O221  1  0.44037468  0.97187119  0.99966081  1
  C  C222  1  0.35302276  0.53382023  0.89238620  1
  C  C223  1  0.21476845  0.74545146  0.92128544  1
  H  H224  1  0.16102926  0.62861401  0.86011598  1
  H  H225  1  0.33103546  0.57278607  0.98511073  1
  C  C226  1  0.23788492  0.80973599  0.78357658  1
  C  C227  1  0.07846534  0.92437268  0.91194316  1
  C  C228  1  0.17760269  0.68120553  0.78578902  1
  C  C229  1  0.21908344  0.74385710  0.86460029  1
  C  C230  1  0.20222816  0.74748022  0.75868134  1
  C  C231  1  0.05613728  0.92628726  0.81662377  1
  C  C232  1  0.26851903  0.88385492  0.75888268  1
  O  O233  1  0.12585194  0.55566466  0.78854799  1
  C  C234  1  0.24104950  0.81067814  0.95063427  1
  C  C235  1  0.18350762  0.68043454  0.83729803  1
  H  H236  1  0.27388631  0.85754075  0.92826498  1
  H  H237  1  0.30676456  0.97933868  0.94390609  1
  C  C238  1  0.45347310  0.73782107  0.95753987  1
  O  O239  1  0.31437655  0.93029124  0.78621162  1
  C  C240  1  0.05044715  0.89345753  0.86524927  1
  O  O241  1  0.35459928  0.52666334  0.84411608  1
  H  H242  1  0.03883897  0.89037156  0.78128337  1
  H  H243  1  0.47624545  0.63993756  0.84607979  1
  C  C244  1  0.39765558  0.69103603  0.98847391  1
  H  H245  1  0.01660297  0.83513280  0.86262696  1
  C  C246  1  0.13197569  0.61377653  0.76071740  1
  C  C247  1  0.25039216  0.99746431  0.97189407  1
  C  C248  1  0.12579225  0.70660093  0.99429328  1
  O  O249  1  0.02753524  0.58768932  0.99319603  1
  C  C250  1  0.72890725  0.35306142  0.15476541  1
  O  O251  1  0.92893939  0.48263612  0.22130021  1
  H  H252  1  0.55753732  0.39995216  0.19787065  1
  H  H253  1  0.95072474  0.31999220  0.06831055  1
  C  C254  1  0.62936655  0.35254741  0.13074065  1
  C  C255  1  0.55209925  0.38016828  0.15730363  1
  O  O256  1  0.68202408  0.13185497  0.18921530  1
  C  C257  1  0.62342786  0.32884674  0.08087326  1
  H  H258  1  0.72460770  0.19221930  0.10422726  1
  H  H259  1  0.89727449  0.20290779  0.08288093  1
  C  C260  1  0.57671584  0.15575324  0.04662474  1
  C  C261  1  0.84604926  0.19057394  0.05277899  1
  C  C262  1  0.74880333  0.17880100  0.06641494  1
  O  O263  1  0.95719917  0.03860529  0.06543773  1
  O  O264  1  0.54845355  0.15993243  0.09149926  1
  H  H265  1  0.68710795  0.30730467  0.06133292  1
  O  O266  1  0.73008462  0.38625504  0.19719342  1
  C  C267  1  0.63909043  0.17550766  0.21857929  1
  O  O268  1  0.55029935  0.19324797  0.21148815  1
  O  O269  1  0.79571928  0.00127362  0.14908322  1
  C  C270  1  0.53604801  0.33608431  0.05438036  1
  C  C271  1  0.68175768  0.15662833  0.02960349  1
  O  O272  1  0.79714691  0.33127834  0.13022159  1
  H  H273  1  0.59810273  0.45733181  0.02053840  1
  O  O274  1  0.96356313  0.33281145  0.24259777  1
  H  H275  1  0.81980615  0.15252903  0.23661875  1
  Zn  Zn276  1  0.67409726  0.01099230  0.19174319  1
  C  C277  1  0.99542936  0.29987849  0.03647124  1
  C  C278  1  0.87873561  0.16809908  0.00415966  1
  H  H279  1  0.99881200  0.36534720  0.22120401  1
  H  H280  1  0.70295572  0.49564923  0.09441549  1
  C  C281  1  0.65881701  0.49464375  0.01633997  1
  O  O282  1  0.52126350  0.14783666  0.01097020  1
  C  C283  1  0.68385450  0.37605856  0.41245513  1
  H  H284  1  0.84417288  0.29647201  0.36669496  1
  O  O285  1  0.78580746  0.47094848  0.31341089  1
  C  C286  1  0.83983351  0.21715688  0.30650744  1
  C  C287  1  0.57798179  0.48214546  0.41446324  1
  C  C288  1  0.93575087  0.19246918  0.31698649  1
  C  C289  1  0.79886995  0.27114879  0.33809008  1
  H  H290  1  0.62631346  0.15760862  0.36619780  1
  O  O291  1  0.77183835  0.05163088  0.37684512  1
  H  H292  1  0.54854393  0.05707689  0.43031280  1
  C  C293  1  0.70215925  0.29023681  0.33160236  1
  H  H294  1  0.66094230  0.44177844  0.47812614  1
  H  H295  1  0.56802494  0.27502661  0.29143486  1
  C  C296  1  0.66020764  0.35733220  0.36270517  1
  C  C297  1  0.64444606  0.25968717  0.29307965  1
  H  H298  1  0.80725997  0.45689927  0.34632911  1
  C  C299  1  0.59256852  0.40270818  0.33780588  1
  C  C300  1  0.88303006  0.44860763  0.46608328  1
  C  C301  1  0.78990816  0.19186975  0.26579600  1
  C  C302  1  0.93399230  0.38120304  0.46942735  1
  O  O303  1  0.97103305  0.21049813  0.35888146  1
  C  C304  1  0.69211878  0.21119740  0.26067211  1
  C  C305  1  0.63275435  0.17076612  0.40626608  1
  C  C306  1  0.57643422  0.22569968  0.43029711  1
  C  C307  1  0.72884871  0.17404896  0.48367529  1
  H  H308  1  0.73746236  0.34213745  0.43207608  1
  C  C309  1  0.63857373  0.43306339  0.43976956  1
  O  O310  1  0.86302011  0.07448255  0.44130129  1
  C  C311  1  0.71396618  0.14714526  0.43406714  1
  H  H312  1  0.58370433  0.00249539  0.48529093  1
  H  H313  1  0.56745324  0.38850545  0.30046183  1
  C  C314  1  0.78529360  0.08664406  0.41699820  1
  C  C315  1  0.55416883  0.46301634  0.36478843  1
  O  O316  1  0.57466947  0.06330584  0.32442706  1
  C  C317  1  0.58543812  0.25410938  0.47890102  1
  H  H318  1  0.97790721  0.36020252  0.43846826  1
  O  O319  1  0.98243036  0.15942243  0.28189577  1
  H  H320  1  0.53733846  0.30027253  0.49306879  1
  Zn  Zn321  1  0.97385361  0.14390310  0.42734317  1
  H  H322  1  0.52440854  0.24634116  0.40161579  1
  C  C323  1  0.89009611  0.49812250  0.41907271  1
  O  O324  1  0.95347386  0.49361501  0.38591404  1
  Zn  Zn325  1  0.83411954  0.39782036  0.25157017  1
  O  O326  1  0.93584406  0.21714103  0.55544153  1
  C  C327  1  0.86161197  0.35694425  0.55152467  1
  C  C328  1  0.64902571  0.46188015  0.58549928  1
  H  H329  1  0.67391868  0.01445600  0.56578954  1
  H  H330  1  0.61606732  0.44030150  0.55158977  1
  C  C331  1  0.59675791  0.25639513  0.59781306  1
  C  C332  1  0.60272039  0.23830326  0.64869768  1
  H  H333  1  0.59223919  0.06159888  0.64609746  1
  C  C334  1  0.66940831  0.19076841  0.67095432  1
  C  C335  1  0.55216184  0.03347424  0.51867851  1
  H  H336  1  0.66905900  0.18277189  0.71175912  1
  C  C337  1  0.73416636  0.15494054  0.63851023  1
  C  C338  1  0.55527438  0.06051336  0.60969279  1
  C  C339  1  0.66253008  0.22277487  0.56431602  1
  C  C340  1  0.59362238  0.48494382  0.62803478  1
  C  C341  1  0.73103017  0.17622913  0.58748163  1
  H  H342  1  0.78734600  0.15250082  0.56476313  1
  H  H343  1  0.54099084  0.29146793  0.58066344  1
  C  C344  1  0.80679363  0.09696677  0.65557201  1
  H  H345  1  0.51448259  0.48363075  0.62351821  1
  H  H346  1  0.85037993  0.32588229  0.58579359  1
  C  C347  1  0.91873387  0.33533502  0.51180779  1
  C  C348  1  0.75035183  0.46071794  0.58966024  1
  C  C349  1  0.81606050  0.42781329  0.54801628  1
  O  O350  1  0.80962787  0.06241839  0.69720979  1
  C  C351  1  0.59943717  0.03483710  0.56632865  1
  O  O352  1  0.85802680  0.06477505  0.62156706  1
  C  C353  1  0.52442379  0.27759201  0.68106433  1
  O  O354  1  0.53620421  0.27673597  0.72624718  1
  C  C355  1  0.95487055  0.25340555  0.51597374  1
  C  C356  1  0.82169133  0.47212333  0.50390717  1
  Zn  Zn357  1  0.99159915  0.11547960  0.59504699  1
  C  C358  1  0.66092655  0.22256035  0.50822431  1
  H  H359  1  0.79206973  0.15464763  0.50737087  1
  C  C360  1  0.79292840  0.49432467  0.63211778  1
  H  H361  1  0.87096437  0.49464262  0.63497451  1
  C  C362  1  0.88856494  0.17548145  0.88804550  1
  H  H363  1  0.91593755  0.35867276  0.97946210  1
  H  H364  1  0.68512912  0.34969154  0.98913329  1
  O  O365  1  0.78605748  0.35456800  0.90868332  1
  C  C366  1  0.70679304  0.14088394  0.98059044  1
  C  C367  1  0.83831114  0.11926947  0.91468607  1
  C  C368  1  0.80882200  0.13576856  0.97136953  1
  H  H369  1  0.90646162  0.23241781  0.90397566  1
  O  O370  1  0.58761526  0.02134266  0.89679985  1
  C  C371  1  0.61950638  0.33254266  0.97135277  1
  C  C372  1  0.61632844  0.32065442  0.91923218  1
  C  C373  1  0.85727627  0.03068394  0.84602807  1
  O  O374  1  0.96237341  0.27984375  0.82144238  1
  C  C375  1  0.82870405  0.04504905  0.89590079  1
  H  H376  1  0.52790215  0.30259592  0.85078924  1
  C  C377  1  0.95450124  0.21454195  0.80449184  1
  C  C378  1  0.89703120  0.08585090  0.81592586  1
  C  C379  1  0.91488213  0.15683155  0.83888222  1
  O  O380  1  0.69458784  0.34625761  0.84499605  1
  H  H381  1  0.65267565  0.12887048  0.95073314  1
  C  C382  1  0.70508813  0.34195091  0.89117010  1
  Zn  Zn383  1  0.85442739  0.36211441  0.82701447  1
  H  H384  1  0.90971726  0.07727572  0.77463385  1
  H  H385  1  0.53585514  0.03004253  0.87101971  1
  C  C386  1  0.53216875  0.29966972  0.89192258  1
  O  O387  1  0.97713007  0.19754785  0.75986101  1
  H  H388  1  0.95780516  0.16697554  0.99576636  1
  C  C389  1  0.97467081  0.31978905  0.98679711  1
  C  C390  1  0.53360486  0.32236642  0.99757214  1
  H  H391  1  0.83860240  0.47996888  0.79861180  1
  O  O392  1  0.90271711  0.45957295  0.79851068  1
  Zn  Zn393  1  0.51092861  0.05787474  0.95595473  1
  C  C394  1  0.61259236  0.69739905  0.06630381  1
  C  C395  1  0.68905692  0.83756848  0.02580044  1
  C  C396  1  0.65848245  0.83166965  0.07617977  1
  H  H397  1  0.67002040  0.88419698  0.10087516  1
  H  H398  1  0.58703197  0.64125934  0.08081482  1
  C  C399  1  0.62923035  0.76324495  0.09817776  1
  C  C400  1  0.83268873  0.60692050  0.10026739  1
  C  C401  1  0.87369298  0.56224246  0.13876443  1
  H  H402  1  0.71296303  0.85284481  0.17241143  1
  H  H403  1  0.86980976  0.50112267  0.13393559  1
  C  C404  1  0.60836920  0.76368373  0.15414671  1
  O  O405  1  0.54580807  0.97942890  0.16252026  1
  C  C406  1  0.84185320  0.68575375  0.10429263  1
  O  O407  1  0.86576139  0.84237923  0.10616458  1
  C  C408  1  0.50558792  0.72713617  0.22102892  1
  C  C409  1  0.65621209  0.81616055  0.18547410  1
  O  O410  1  0.92061670  0.83996564  0.18301153  1
  C  C411  1  0.87964670  0.72155109  0.14745440  1
  C  C412  1  0.62469615  0.82479666  0.23503877  1
  H  H413  1  0.81241876  0.72224965  0.07318818  1
  C  C414  1  0.71530550  0.51929831  0.05770940  1
  C  C415  1  0.78515572  0.57669987  0.05151936  1
  O  O416  1  0.74044080  0.96665602  0.02951254  1
  C  C417  1  0.88495702  0.80645926  0.14590961  1
  C  C418  1  0.91067870  0.67898743  0.18863007  1
  C  C419  1  0.53066364  0.71608390  0.17090241  1
  C  C420  1  0.93976669  0.55193169  0.22566783  1
  Zn  Zn421  1  0.84765737  0.96047696  0.08511706  1
  C  C422  1  0.90696591  0.59916632  0.18198988  1
  H  H423  1  0.93560861  0.70343590  0.22391027  1
  H  H424  1  0.84772697  0.99315975  0.17317519  1
  O  O425  1  0.72250641  0.93229111  0.24670750  1
  C  C426  1  0.80304114  0.60572450  0.00231061  1
  C  C427  1  0.64149523  0.70354788  0.01492829  1
  H  H428  1  0.51986872  0.98383918  0.19681109  1
  C  C429  1  0.72742888  0.90982656  0.00189845  1
  C  C430  1  0.96685509  0.80833290  0.46966621  1
  C  C431  1  0.66584329  0.88568655  0.26663893  1
  C  C432  1  0.94242962  0.92240304  0.41730787  1
  C  C433  1  0.90955547  0.87774542  0.37660812  1
  O  O434  1  0.61797725  0.76402814  0.45630729  1
  Zn  Zn435  1  0.76610982  0.57972615  0.34606987  1
  O  O436  1  0.97570437  0.58391397  0.26288083  1
  O  O437  1  0.87290640  0.76547071  0.29799853  1
  O  O438  1  0.65586085  0.88245714  0.31249366  1
  C  C439  1  0.54711364  0.78047172  0.25309065  1
  O  O440  1  0.65858243  0.64715454  0.32438752  1
  C  C441  1  0.93468783  0.76546558  0.42803304  1
  H  H442  1  0.69345000  0.69330134  0.31916575  1
  Zn  Zn443  1  0.64817654  0.97759381  0.36174791  1
  C  C444  1  0.88827236  0.74024455  0.34069912  1
  C  C445  1  0.54125847  0.76779054  0.43419370  1
  O  O446  1  0.82087448  0.54396610  0.41407746  1
  O  O447  1  0.88744399  0.66808008  0.34823617  1
  H  H448  1  0.51714478  0.78956512  0.29000319  1
  H  H449  1  0.91773031  0.70327723  0.42907871  1
  C  C450  1  0.91399125  0.79783823  0.38181079  1
  O  O451  1  0.62867432  0.94798164  0.43120733  1
  H  H452  1  0.87983325  0.90644675  0.34322166  1
  O  O453  1  0.98290640  0.94189081  0.28099067  1
  C  C454  1  0.96420740  0.88868038  0.46521551  1
  H  H455  1  0.67129525  0.90554959  0.43310783  1
  H  H456  1  0.94047405  0.98607092  0.41362549  1
  H  H457  1  0.54274151  0.53292246  0.43248815  1
  Zn  Zn458  1  0.51811687  0.67435797  0.34127949  1
  Zn  Zn459  1  0.97779781  0.82646530  0.25826226  1
  H  H460  1  0.99018666  0.92906333  0.49397298  1
  O  O461  1  0.53620254  0.77297489  0.38699215  1
  H  H462  1  0.91976487  0.96072648  0.28068228  1
  H  H463  1  0.77839144  0.52553772  0.49812116  1
  Zn  Zn464  1  0.98396746  0.51027131  0.74572204  1
  H  H465  1  0.59841195  0.54825588  0.70083494  1
  O  O466  1  0.72121201  0.85522344  0.69332878  1
  O  O467  1  0.86717645  0.57694309  0.71773314  1
  O  O468  1  0.95644735  0.89416297  0.65188900  1
  O  O469  1  0.59486681  0.75029623  0.69220985  1
  C  C470  1  0.97630272  0.81166366  0.56566720  1
  C  C471  1  0.96656998  0.82359445  0.65855346  1
  C  C472  1  0.99263223  0.77140245  0.51961758  1
  H  H473  1  0.54227491  0.71830753  0.52808343  1
  Zn  Zn474  1  0.57729777  0.87829853  0.68172406  1
  O  O475  1  0.95759091  0.79164362  0.69858272  1
  C  C476  1  0.99208379  0.77549373  0.61214690  1
  H  H477  1  0.94996066  0.87339931  0.56723361  1
  C  C478  1  0.78177756  0.56191195  0.71579504  1
  C  C479  1  0.73770688  0.52522534  0.66885585  1
  H  H480  1  0.51202352  0.72954286  0.61136419  1
  C  C481  1  0.54761861  0.69582207  0.70899060  1
  H  H482  1  0.71491387  0.81159560  0.67205821  1
  O  O483  1  0.53186885  0.85122026  0.56187080  1
  Zn  Zn484  1  0.92552253  0.98700888  0.70178309  1
  Zn  Zn485  1  0.82947365  0.82980443  0.74839355  1
  C  C486  1  0.63712190  0.52370731  0.66883552  1
  O  O487  1  0.51807008  0.93198547  0.74282302  1
  H  H488  1  0.80977051  0.70181580  0.74989784  1
  C  C489  1  0.75015928  0.61964456  0.90721510  1
  O  O490  1  0.79448683  0.73085341  0.77895666  1
  C  C491  1  0.54846886  0.77913932  0.88622696  1
  O  O492  1  0.86795507  0.93481283  0.77740602  1
  Zn  Zn493  1  0.67285952  0.67372845  0.80929987  1
  O  O494  1  0.70044851  0.59537022  0.86994488  1
  H  H495  1  0.70365343  0.76928910  0.95482571  1
  O  O496  1  0.56376017  0.84007774  0.91060521  1
  C  C497  1  0.67794653  0.52826943  0.96861501  1
  H  H498  1  0.63028605  0.51016090  0.93743019  1
  C  C499  1  0.83783834  0.95467724  0.82108698  1
  O  O500  1  0.74913636  0.91369847  0.95670598  1
  C  C501  1  0.74460626  0.58541731  0.96088449  1
  Zn  Zn502  1  0.65998632  0.92427531  0.88575502  1
  O  O503  1  0.58111247  0.76787330  0.84276020  1
  O  O504  1  0.79361369  0.90534733  0.84567487  1
  O  O505  1  0.80383259  0.67266599  0.89966439  1
  C  C506  1  0.67641040  0.77149485  0.99547317  1
  H  H507  1  0.86147160  0.64771718  0.99485069  1
  O  O508  1  0.73286902  0.57621755  0.75483454  1
  H  H509  1  0.64003524  0.64696392  0.99599327  1
  H  H510  1  0.80381719  0.99872512  0.91829567  1
  O  O511  1  0.55269400  0.67490042  0.75414605  1
