# generated using pymatgen
data_CuH2(C3O2)2
_symmetry_space_group_name_H-M   'P 1'
_cell_length_a   23.93208847
_cell_length_b   14.22713114
_cell_length_c   8.08681180
_cell_angle_alpha   90.00000000
_cell_angle_beta   90.00000000
_cell_angle_gamma   90.00000000
_symmetry_Int_Tables_number   1
_chemical_formula_structural   CuH2(C3O2)2
_chemical_formula_sum   'Cu12 H24 C72 O48'
_cell_volume   2753.43780113
_cell_formula_units_Z   12
loop_
 _symmetry_equiv_pos_site_id
 _symmetry_equiv_pos_as_xyz
  1  'x, y, z'
loop_
 _atom_site_type_symbol
 _atom_site_label
 _atom_site_symmetry_multiplicity
 _atom_site_fract_x
 _atom_site_fract_y
 _atom_site_fract_z
 _atom_site_occupancy
  O  O0  1  0.12474745  0.26282328  0.10632312  1
  C  C1  1  0.12177740  0.19354176  0.18603361  1
  O  O2  1  0.16691035  0.15767871  0.25322026  1
  C  C3  1  0.07009325  0.14149226  0.23340654  1
  C  C4  1  0.02022365  0.15119671  0.14545947  1
  H  H5  1  0.11567128  0.05763792  0.42472468  1
  C  C6  1  0.07636776  0.06989567  0.35212193  1
  Cu  Cu7  1  0.21078029  0.07606280  0.14086829  1
  H  H8  1  0.01755731  0.21326202  0.05917379  1
  C  C9  1  0.03074044  0.01393199  0.37310933  1
  C  C10  1  0.02541957  0.19070889  0.63112238  1
  O  O11  1  0.17009162  0.03279748  0.94343188  1
  H  H12  1  0.18288630  0.20139832  0.78870595  1
  C  C13  1  0.10086699  0.12229402  0.79497396  1
  H  H14  1  0.01554249  0.06866793  0.76902277  1
  C  C15  1  0.04541843  0.12474113  0.74247167  1
  C  C16  1  0.12003924  0.04406916  0.90575512  1
  C  C17  1  0.13733821  0.19537681  0.75051753  1
  C  C18  1  0.11252381  0.26684455  0.66317575  1
  C  C19  1  0.14715845  0.35514595  0.63074739  1
  O  O20  1  0.19405049  0.35534736  0.67913384  1
  C  C21  1  0.05988902  0.26931419  0.59685154  1
  H  H22  1  0.04624699  0.32616475  0.50971646  1
  O  O23  1  0.12419559  0.42800906  0.55468855  1
  O  O24  1  0.10010017  0.76650511  0.16414742  1
  H  H25  1  0.19844536  0.74875061  0.20491844  1
  O  O26  1  0.02523914  0.63899117  0.36046517  1
  C  C27  1  0.20971374  0.73223078  0.07819135  1
  Cu  Cu28  1  0.03067366  0.76824706  0.24721263  1
  C  C29  1  0.11098840  0.75629537  0.00824181  1
  C  C30  1  0.03689316  0.92415201  0.46869991  1
  C  C31  1  0.04204393  0.61143117  0.49631019  1
  O  O32  1  0.00749792  0.85570659  0.42815609  1
  O  O33  1  0.20455732  0.64594821  0.48649630  1
  O  O34  1  0.08299221  0.98638748  0.94371070  1
  Cu  Cu35  1  0.05878207  0.88743543  0.79557928  1
  O  O36  1  0.09042809  0.61613047  0.55249793  1
  H  H37  1  0.14696531  0.72063720  0.70818878  1
  C  C38  1  0.23609177  0.68353748  0.75778336  1
  O  O39  1  0.07609392  0.91435827  0.57307476  1
  H  H40  1  0.03508347  0.56591364  0.85068266  1
  O  O41  1  0.07638153  0.77193005  0.89708118  1
  C  C42  1  0.18182188  0.71031486  0.80002023  1
  C  C43  1  0.24338013  0.64966218  0.59153339  1
  C  C44  1  0.16575110  0.72941022  0.96281450  1
  Cu  Cu45  1  0.15935819  0.53590925  0.52086078  1
  O  O46  1  0.27468050  0.00750691  0.10408245  1
  C  C47  1  0.31727488  0.02425422  0.00161447  1
  H  H48  1  0.40981825  0.04039621  0.82911386  1
  O  O49  1  0.31473845  0.07319147  0.88360228  1
  O  O50  1  0.30137824  0.75653531  0.30395991  1
  O  O51  1  0.35494889  0.67417438  0.14388006  1
  C  C52  1  0.26447177  0.71112624  0.03559366  1
  C  C53  1  0.42569491  0.88201624  0.22181719  1
  C  C54  1  0.43724926  0.82409496  0.37207171  1
  C  C55  1  0.47215591  0.89808021  0.12087770  1
  C  C56  1  0.31097284  0.71151770  0.16385043  1
  H  H57  1  0.33710076  0.91959543  0.27866434  1
  C  C58  1  0.37310689  0.92277909  0.19463571  1
  O  O59  1  0.47713654  0.77795504  0.39577878  1
  O  O60  1  0.39578384  0.82616701  0.48893600  1
  C  C61  1  0.37090710  0.97654022  0.04855687  1
  H  H62  1  0.32064487  0.66507361  0.84653778  1
  C  C63  1  0.27895367  0.68607265  0.87452899  1
  C  C64  1  0.46679188  0.95623898  0.98011234  1
  O  O65  1  0.29472521  0.63156725  0.55473418  1
  C  C66  1  0.41559766  0.99493144  0.94153147  1
  Cu  Cu67  1  0.33794058  0.73310301  0.50223146  1
  C  C68  1  0.64332110  0.29688814  0.16226661  1
  C  C69  1  0.62691212  0.33784000  0.31349774  1
  C  C70  1  0.69554995  0.26422790  0.12494432  1
  C  C71  1  0.66960906  0.34522646  0.42335679  1
  H  H72  1  0.58210149  0.36108482  0.32895531  1
  O  O73  1  0.72958410  0.07349397  0.08012716  1
  C  C74  1  0.72393861  0.31280654  0.39981494  1
  C  C75  1  0.73819254  0.27706534  0.24405875  1
  O  O76  1  0.55400715  0.31053981  0.05931286  1
  C  C77  1  0.74525476  0.02766479  0.42058329  1
  C  C78  1  0.59899614  0.28030413  0.02874646  1
  H  H79  1  0.69935381  0.23224419  0.00460635  1
  C  C80  1  0.69872439  0.01368162  0.14231014  1
  Cu  Cu81  1  0.56495808  0.13961469  0.83816658  1
  O  O82  1  0.51336102  0.04261093  0.78160499  1
  O  O83  1  0.61314631  0.23124460  0.89992777  1
  O  O84  1  0.70509679  0.40225352  0.68435984  1
  O  O85  1  0.61715565  0.42117778  0.63055905  1
  C  C86  1  0.65995544  0.38864268  0.59196128  1
  Cu  Cu87  1  0.62710171  0.00020634  0.86173177  1
  C  C88  1  0.68299078  0.89862676  0.36321466  1
  H  H89  1  0.65125850  0.86706839  0.28758865  1
  C  C90  1  0.70931296  0.98214095  0.31217901  1
  O  O91  1  0.65852080  0.97356621  0.06474008  1
  H  H92  1  0.51061336  0.86583119  0.15001536  1
  H  H93  1  0.73297362  0.88105516  0.76363736  1
  C  C94  1  0.65989541  0.77918040  0.58382705  1
  C  C95  1  0.69140011  0.86481406  0.52282436  1
  O  O96  1  0.67777448  0.73846733  0.71684705  1
  C  C97  1  0.72804628  0.90551662  0.63224755  1
  O  O98  1  0.55992720  0.92801348  0.91314995  1
  C  C99  1  0.51589505  0.97171417  0.87735692  1
  Cu  Cu100  1  0.74071019  0.66829490  0.68659751  1
  O  O101  1  0.62057627  0.75347907  0.50626636  1
  Cu  Cu102  1  0.80882525  0.05791681  0.05398575  1
  C  C103  1  0.79591641  0.24613190  0.22692856  1
  Cu  Cu104  1  0.89448514  0.31039344  0.37755409  1
  C  C105  1  0.97619668  0.08606085  0.16692034  1
  O  O106  1  0.81583613  0.20211463  0.10380097  1
  C  C107  1  0.92930925  0.09646338  0.05532267  1
  O  O108  1  0.88774685  0.04100660  0.07028374  1
  O  O109  1  0.95492821  0.45898404  0.15218223  1
  O  O110  1  0.96263436  0.24655697  0.43710991  1
  O  O111  1  0.82849994  0.26235089  0.34941595  1
  H  H112  1  0.76229561  0.09618458  0.38545696  1
  O  O113  1  0.86497967  0.48415758  0.21346628  1
  C  C114  1  0.91108644  0.49629967  0.11967791  1
  C  C115  1  0.98060974  0.01501719  0.28714749  1
  H  H116  1  0.75627614  0.32070483  0.49146417  1
  C  C117  1  0.87299687  0.44236818  0.63825952  1
  H  H118  1  0.94493982  0.44025820  0.84613933  1
  O  O119  1  0.90345516  0.37942308  0.57864956  1
  O  O120  1  0.81925047  0.11242643  0.67435961  1
  O  O121  1  0.93522250  0.12493426  0.58791006  1
  Cu  Cu122  1  0.88366671  0.14875484  0.77265604  1
  O  O123  1  0.82407761  0.42244964  0.68359714  1
  O  O124  1  0.93203795  0.16039249  0.94750681  1
  C  C125  1  0.79484741  0.03384121  0.69518506  1
  C  C126  1  0.97113328  0.18476602  0.54894304  1
  Cu  Cu127  1  0.75503002  0.49844266  0.65354586  1
  O  O128  1  0.85379623  0.75669866  0.33366578  1
  O  O129  1  0.78581843  0.59022129  0.09281919  1
  H  H130  1  0.93583013  0.56699393  0.40610466  1
  H  H131  1  0.89671743  0.71012275  0.10786854  1
  H  H132  1  0.94799342  0.96176286  0.30054557  1
  O  O133  1  0.97145401  0.81112014  0.11329486  1
  H  H134  1  0.83843309  0.53063703  0.14164710  1
  C  C135  1  0.86639015  0.73153590  0.46947132  1
  C  C136  1  0.89993389  0.53578993  0.65898718  1
  C  C137  1  0.75723378  0.98667402  0.57812456  1
  O  O138  1  0.77049856  0.69404795  0.90100964  1
  C  C139  1  0.85999666  0.61518315  0.89923047  1
  C  C140  1  0.92924803  0.75878953  0.87268465  1
  C  C141  1  0.94215467  0.55780619  0.54052814  1
  O  O142  1  0.98944538  0.88749316  0.87259760  1
  C  C143  1  0.90691500  0.56605944  0.96676333  1
  O  O144  1  0.80074258  0.59515409  0.63704599  1
  C  C145  1  0.85879942  0.61145938  0.70452172  1
  C  C146  1  0.88222236  0.70377761  0.63178261  1
  C  C147  1  0.91988333  0.76550553  0.70403204  1
  H  H148  1  0.93924333  0.81999949  0.62319786  1
  C  C149  1  0.80150552  0.63369833  0.97488886  1
  C  C150  1  0.94318126  0.51711177  0.82066551  1
  C  C151  1  0.99932558  0.55253430  0.76808785  1
  C  C152  1  0.99510362  0.57597889  0.60448679  1
  O  O153  1  0.79890371  0.99264328  0.83142682  1
  C  C154  1  0.89982569  0.68571819  0.97799792  1
  C  C155  1  0.96542819  0.81911584  0.95617933  1
