# generated using pymatgen
data_Zn7H36C72(NO5)6
_symmetry_space_group_name_H-M   'P 1'
_cell_length_a   16.81333682
_cell_length_b   17.01817161
_cell_length_c   29.94216934
_cell_angle_alpha   90.00000000
_cell_angle_beta   90.00000000
_cell_angle_gamma   90.00000000
_symmetry_Int_Tables_number   1
_chemical_formula_structural   Zn7H36C72(NO5)6
_chemical_formula_sum   'Zn28 H144 C288 N24 O120'
_cell_volume   8567.42032692
_cell_formula_units_Z   4
loop_
 _symmetry_equiv_pos_site_id
 _symmetry_equiv_pos_as_xyz
  1  'x, y, z'
loop_
 _atom_site_type_symbol
 _atom_site_label
 _atom_site_symmetry_multiplicity
 _atom_site_fract_x
 _atom_site_fract_y
 _atom_site_fract_z
 _atom_site_occupancy
  C  C0  1  0.09351470  0.41086112  0.10020338  1
  C  C1  1  0.29656862  0.13223186  0.03675620  1
  N  N2  1  0.28148021  0.38088988  0.01824501  1
  C  C3  1  0.43503788  0.40514298  0.10548873  1
  H  H4  1  0.08278950  0.19092758  0.04367815  1
  C  C5  1  0.31270847  0.41287459  0.05797117  1
  O  O6  1  0.27296893  0.06532908  0.11521208  1
  C  C7  1  0.03277488  0.35720170  0.18637078  1
  C  C8  1  0.13163908  0.44686591  0.22245582  1
  C  C9  1  0.25845201  0.13819890  0.11679537  1
  H  H10  1  0.40309184  0.43645890  0.13307598  1
  C  C11  1  0.27144341  0.17904289  0.07213088  1
  H  H12  1  0.30080643  0.06607932  0.04196246  1
  C  C13  1  0.28067402  0.29356424  0.02564084  1
  C  C14  1  0.25593605  0.26050507  0.06636644  1
  C  C15  1  0.45922887  0.24845033  0.24323188  1
  C  C16  1  0.44209894  0.35378216  0.02969587  1
  O  O17  1  0.41429448  0.36791171  0.21030031  1
  C  C18  1  0.12919674  0.43283891  0.13913537  1
  H  H19  1  0.22830536  0.29662623  0.09178960  1
  N  N20  1  0.11758423  0.45275484  0.06081399  1
  C  C21  1  0.46874197  0.32668329  0.22021740  1
  C  C22  1  0.09877323  0.40728658  0.18069831  1
  O  O23  1  0.28221958  0.45411737  0.08497426  1
  C  C24  1  0.09388349  0.42718696  0.01741081  1
  O  O25  1  0.22989994  0.17210043  0.14791551  1
  H  H26  1  0.17649197  0.47142852  0.06388350  1
  C  C27  1  0.40045260  0.39364200  0.06294439  1
  H  H28  1  0.17650204  0.47801250  0.13883555  1
  H  H29  1  0.32889105  0.26589005  0.24315528  1
  C  C30  1  0.03047148  0.35171675  0.10381230  1
  H  H31  1  0.22364116  0.39931284  0.00728058  1
  O  O32  1  0.18974317  0.49295008  0.21737569  1
  H  H33  1  0.00817119  0.34414977  0.22166033  1
  C  C34  1  0.05826620  0.19955781  0.01024698  1
  C  C35  1  0.00448020  0.32956109  0.14585628  1
  H  H36  1  0.00420306  0.32829097  0.07251093  1
  C  C37  1  0.00538209  0.42197741  0.01639804  1
  C  C38  1  0.43775281  0.10387363  0.29063592  1
  H  H39  1  0.00492943  0.49121569  0.36796071  1
  C  C40  1  0.25367133  0.06611482  0.37771485  1
  C  C41  1  0.10640290  0.25787838  0.42156011  1
  H  H42  1  0.30841468  0.28705665  0.40465703  1
  H  H43  1  0.41330715  0.19244836  0.36100220  1
  O  O44  1  0.10010569  0.43576194  0.25939325  1
  H  H45  1  0.37595531  0.45339737  0.31683593  1
  H  H46  1  0.48097852  0.02369473  0.39155600  1
  C  C47  1  0.43101293  0.37335886  0.41728188  1
  C  C48  1  0.25700000  0.23476993  0.46462584  1
  C  C49  1  0.36727049  0.39551414  0.44572001  1
  C  C50  1  0.25104290  0.27324348  0.42234185  1
  C  C51  1  0.18568967  0.21449796  0.48752838  1
  H  H52  1  0.18187071  0.31551688  0.36905151  1
  H  H53  1  0.05720865  0.37432852  0.40406007  1
  C  C54  1  0.30659613  0.11721266  0.35638003  1
  C  C55  1  0.37921262  0.15457155  0.27571661  1
  C  C56  1  0.43754241  0.39887564  0.37266941  1
  H  H57  1  0.31339869  0.22954395  0.48212408  1
  C  C58  1  0.31859526  0.09505051  0.44903137  1
  C  C59  1  0.37484961  0.44093520  0.35240132  1
  C  C60  1  0.37242392  0.15132722  0.37711044  1
  C  C61  1  0.10766340  0.22593433  0.46342332  1
  C  C62  1  0.17751755  0.28788274  0.40147055  1
  N  N63  1  0.00981166  0.34254190  0.39508803  1
  H  H64  1  0.31903792  0.08717706  0.48755385  1
  C  C65  1  0.37306083  0.13618219  0.42428774  1
  H  H66  1  0.05027122  0.20141282  0.47826101  1
  C  C67  1  0.26366894  0.05387564  0.42389193  1
  O  O68  1  0.08467128  0.06675287  0.31604366  1
  H  H69  1  0.42274009  0.04927114  0.30911167  1
  C  C70  1  0.02766925  0.49158330  0.47291920  1
  C  C71  1  0.30687885  0.45449711  0.37854204  1
  C  C72  1  0.44085401  0.18284602  0.44535464  1
  O  O73  1  0.43657748  0.20385115  0.48504683  1
  Zn  Zn74  1  0.27084115  0.11092737  0.28669438  1
  C  C75  1  0.30520795  0.43707729  0.42502542  1
  C  C76  1  0.23227099  0.48168211  0.35466551  1
  H  H77  1  0.25032779  0.45477577  0.44372376  1
  H  H78  1  0.47915304  0.33854850  0.43361817  1
  H  H79  1  0.00147729  0.13771628  0.26356954  1
  O  O80  1  0.01680900  0.41695103  0.48273757  1
  N  N81  1  0.36943653  0.37774897  0.49294943  1
  H  H82  1  0.21165074  0.03338256  0.35830021  1
  O  O83  1  0.18071879  0.01870163  0.27577422  1
  C  C84  1  0.02092915  0.26134127  0.39918481  1
  C  C85  1  0.11407177  0.01143064  0.29606502  1
  C  C86  1  0.20606551  0.00411013  0.44911286  1
  O  O87  1  0.16543334  0.48166430  0.37178327  1
  C  C88  1  0.37889797  0.22564966  0.25279154  1
  H  H89  1  0.33356766  0.32545687  0.70059062  1
  Zn  Zn90  1  0.08316206  0.16275191  0.55041060  1
  N  N91  1  0.10570035  0.29444356  0.57809121  1
  C  C92  1  0.25599779  0.30612638  0.59710564  1
  O  O93  1  0.24865164  0.15515213  0.55849505  1
  O  O94  1  0.42757162  0.28337162  0.58992119  1
  H  H95  1  0.27406669  0.28723368  0.56346357  1
  C  C96  1  0.40324810  0.29550246  0.62847807  1
  C  C97  1  0.21105896  0.34365496  0.68115549  1
  O  O98  1  0.43722633  0.05362256  0.52275314  1
  O  O99  1  0.10468738  0.36369592  0.72894272  1
  C  C100  1  0.17823924  0.36174251  0.72633539  1
  C  C101  1  0.32195291  0.42509092  0.52025698  1
  C  C102  1  0.38220397  0.48506135  0.54371828  1
  O  O103  1  0.44764561  0.29769393  0.66181664  1
  H  H104  1  0.08773148  0.34861473  0.65704286  1
  C  C105  1  0.17369686  0.31504793  0.60595933  1
  H  H106  1  0.05168480  0.28292597  0.59369994  1
  C  C107  1  0.31436116  0.30844322  0.63071678  1
  H  H108  1  0.30592614  0.04503041  0.63387413  1
  C  C109  1  0.15002007  0.33659606  0.64902693  1
  O  O110  1  0.06424241  0.08984150  0.68955637  1
  H  H111  1  0.07159462  0.00275692  0.51036084  1
  O  O112  1  0.25306314  0.42063442  0.52819015  1
  C  C113  1  0.29199552  0.32847013  0.67394108  1
  C  C114  1  0.39710424  0.48167706  0.58981208  1
  H  H115  1  0.36578063  0.43458785  0.61134384  1
  Zn  Zn116  1  0.46131420  0.16999659  0.55491601  1
  Zn  Zn117  1  0.05112468  0.37001611  0.53946265  1
  C  C118  1  0.04676632  0.13841022  0.72119469  1
  H  H119  1  0.46117035  0.39441005  0.73427344  1
  C  C120  1  0.46259809  0.08841120  0.65210355  1
  O  O121  1  0.42875459  0.11053441  0.61713265  1
  C  C122  1  0.42269256  0.01709642  0.66978078  1
  C  C123  1  0.20075698  0.18102443  0.53290307  1
  H  H124  1  0.17053689  0.03999257  0.74206983  1
  C  C125  1  0.33999208  0.00004963  0.65430233  1
  H  H126  1  0.42663634  0.38747198  0.50561760  1
  C  C127  1  0.26002133  0.02374111  0.81966179  1
  C  C128  1  0.15098203  0.07863483  0.77007040  1
  C  C129  1  0.44396295  0.40398567  0.84672544  1
  H  H130  1  0.06043294  0.28637861  0.85945463  1
  C  C131  1  0.34109234  0.11874929  0.95777442  1
  C  C132  1  0.08888983  0.23322945  0.93543288  1
  H  H133  1  0.02794959  0.24209506  0.78905803  1
  H  H134  1  0.28576904  0.42780848  0.81699627  1
  O  O135  1  0.22187100  0.37336772  0.76030653  1
  H  H136  1  0.17033340  0.24873181  0.98856540  1
  C  C137  1  0.19319556  0.07842938  0.81121600  1
  O  O138  1  0.21847232  0.26646324  0.91563153  1
  O  O139  1  0.35406056  0.15535075  0.92154087  1
  C  C140  1  0.42702728  0.48504412  0.92964627  1
  Zn  Zn141  1  0.37658353  0.13803952  0.85502813  1
  C  C142  1  0.15239026  0.25395445  0.90346124  1
  N  N143  1  0.11847293  0.26692534  0.85888417  1
  O  O144  1  0.41567286  0.41958933  0.94218838  1
  H  H145  1  0.41762009  0.36909994  0.87404348  1
  H  H146  1  0.02091029  0.38152457  0.94677907  1
  O  O147  1  0.34908001  0.04690840  0.95895983  1
  Zn  Zn148  1  0.15736753  0.38122248  0.82507114  1
  C  C149  1  0.17693701  0.13597802  0.84295218  1
  C  C150  1  0.11234957  0.23222170  0.97999480  1
  O  O151  1  0.13174595  0.41146676  0.98502869  1
  H  H152  1  0.32286328  0.27334649  0.95556419  1
  H  H153  1  0.20682753  0.13944419  0.87549252  1
  C  C154  1  0.47585409  0.48045423  0.85434651  1
  C  C155  1  0.09161758  0.13354054  0.76534692  1
  C  C156  1  0.40704902  0.29234054  0.79487916  1
  C  C157  1  0.46535585  0.41849567  0.76766569  1
  C  C158  1  0.07427596  0.19794731  0.79316998  1
  C  C159  1  0.43635511  0.37654158  0.80465687  1
  O  O160  1  0.36971643  0.26239294  0.82619282  1
  N  N161  1  0.01628909  0.39141695  0.79961328  1
  C  C162  1  0.11878770  0.19379748  0.83319082  1
  H  H163  1  0.03145680  0.37935880  0.76450347  1
  O  O164  1  0.30834242  0.03672588  0.85339570  1
  N  N165  1  0.24652376  0.45494242  0.83760516  1
  O  O166  1  0.48054838  0.11491607  0.81963156  1
  H  H167  1  0.41743720  0.34502579  0.99750362  1
  C  C168  1  0.30475915  0.24778141  0.98800030  1
  C  C169  1  0.31345950  0.16882555  0.99637319  1
  O  O170  1  0.41748843  0.26241057  0.75787999  1
  C  C171  1  0.01559623  0.04635865  0.91838128  1
  C  C172  1  0.48722436  0.49529506  0.77668563  1
  C  C173  1  0.01396325  0.20744629  0.91991358  1
  H  H174  1  0.01843743  0.07409783  0.95234956  1
  H  H175  1  0.47639790  0.24661457  0.96976307  1
  H  H176  1  0.49012563  0.17181759  0.90220569  1
  H  H177  1  0.36462597  0.83398204  0.11780595  1
  Zn  Zn178  1  0.18584399  0.61375322  0.19731443  1
  C  C179  1  0.43969866  0.60594249  0.17828214  1
  C  C180  1  0.39485797  0.85185255  0.18869937  1
  C  C181  1  0.07261735  0.66609485  0.12374327  1
  C  C182  1  0.44170084  0.77922753  0.18889665  1
  H  H183  1  0.37912253  0.64884840  0.12048031  1
  C  C184  1  0.43370175  0.63357290  0.13467964  1
  O  O185  1  0.30275241  0.64212199  0.19151231  1
  C  C186  1  0.42130994  0.70228442  0.05130578  1
  N  N187  1  0.49177528  0.66049314  0.06324743  1
  C  C188  1  0.37189866  0.91122050  0.22164579  1
  H  H189  1  0.41760264  0.72409728  0.20441990  1
  C  C190  1  0.36261390  0.59850952  0.20486181  1
  O  O191  1  0.38548413  0.75040430  0.07015117  1
  O  O192  1  0.10530855  0.72790195  0.11883103  1
  O  O193  1  0.10700028  0.60673064  0.14520436  1
  C  C194  1  0.39421030  0.66136490  0.00850181  1
  O  O195  1  0.34596067  0.97280952  0.22677374  1
  Zn  Zn196  1  0.37932553  0.99808968  0.12974788  1
  C  C197  1  0.38945516  0.87810311  0.14276417  1
  H  H198  1  0.44803218  0.55159072  0.01436781  1
  Zn  Zn199  1  0.31204824  0.80905115  0.23727192  1
  C  C200  1  0.48127889  0.90427484  0.13295707  1
  O  O201  1  0.35823282  0.56135374  0.23834404  1
  C  C202  1  0.06895648  0.94018820  0.44291496  1
  Zn  Zn203  1  0.38861470  0.82048308  0.49948047  1
  C  C204  1  0.08107077  0.92684273  0.30063839  1
  C  C205  1  0.00301533  0.90194835  0.41164160  1
  C  C206  1  0.11298486  0.78875293  0.28762738  1
  H  H207  1  0.39492904  0.54068878  0.47831618  1
  O  O208  1  0.37271724  0.83047536  0.41850147  1
  C  C209  1  0.39805454  0.88847611  0.39825304  1
  O  O210  1  0.14957420  0.97491459  0.42200139  1
  O  O211  1  0.36397800  0.93107926  0.37244161  1
  C  C212  1  0.13475358  0.86880578  0.28791902  1
  O  O213  1  0.49068284  0.65349809  0.45766770  1
  H  H214  1  0.02232944  0.64283802  0.43793891  1
  H  H215  1  0.01259586  0.70713623  0.30426602  1
  Zn  Zn216  1  0.10396088  0.54533177  0.30350008  1
  C  C217  1  0.16455357  0.71969366  0.27785594  1
  C  C218  1  0.46756378  0.66504128  0.49487934  1
  H  H219  1  0.09759796  0.89077767  0.46409146  1
  C  C220  1  0.49224739  0.90290409  0.40989413  1
  H  H221  1  0.02444407  0.86216233  0.38397062  1
  O  O222  1  0.00036283  0.77389246  0.46910982  1
  O  O223  1  0.20808752  0.99138751  0.48867393  1
  C  C224  1  0.03384218  0.77138000  0.30363618  1
  H  H225  1  0.34459938  0.94694464  0.47983674  1
  C  C226  1  0.03439834  0.99164382  0.48126679  1
  H  H227  1  0.19331865  0.88755272  0.27548421  1
  O  O228  1  0.23475019  0.51575742  0.31710881  1
  O  O229  1  0.13951481  0.64895606  0.27063734  1
  O  O230  1  0.23599847  0.73386356  0.27645399  1
  C  C231  1  0.00280408  0.91582896  0.31518201  1
  O  O232  1  0.09039129  0.52449887  0.47939076  1
  C  C233  1  0.46975522  0.95229505  0.68996218  1
  C  C234  1  0.44234609  0.86501030  0.69081136  1
  C  C235  1  0.49207029  0.93351065  0.55546091  1
  C  C236  1  0.29977737  0.93204409  0.67609732  1
  O  O237  1  0.30595218  0.76314241  0.59892701  1
  N  N238  1  0.44167277  0.72764268  0.51797138  1
  C  C239  1  0.47369194  0.60283811  0.57807730  1
  C  C240  1  0.17412498  0.78437227  0.57528958  1
  C  C241  1  0.14724270  0.80760438  0.61601452  1
  Zn  Zn242  1  0.08929570  0.81373149  0.72584878  1
  H  H243  1  0.32764417  0.80606892  0.69221861  1
  N  N244  1  0.44930932  0.83778656  0.73501452  1
  H  H245  1  0.19225417  0.81552153  0.64326657  1
  C  C246  1  0.48477599  0.81113817  0.66003654  1
  C  C247  1  0.12325562  0.78062127  0.53897341  1
  C  C248  1  0.35188798  0.86605897  0.68246235  1
  O  O249  1  0.28468654  0.76166416  0.52650633  1
  O  O250  1  0.14075297  0.63058893  0.74051353  1
  C  C251  1  0.45943147  0.59956571  0.53144699  1
  C  C252  1  0.44403851  0.54294567  0.60671888  1
  C  C253  1  0.01315137  0.81575029  0.58760490  1
  C  C254  1  0.21419530  0.92639723  0.68556145  1
  C  C255  1  0.46423310  0.89722358  0.59361916  1
  O  O256  1  0.19968462  0.87162980  0.71351965  1
  C  C257  1  0.06590577  0.82641031  0.62311631  1
  H  H258  1  0.42475279  0.72774478  0.55035181  1
  N  N259  1  0.03359062  0.85102687  0.66512659  1
  C  C260  1  0.26365808  0.77038401  0.56759686  1
  C  C261  1  0.41407890  0.53820642  0.51268401  1
  H  H262  1  0.14161246  0.76307484  0.50382291  1
  C  C263  1  0.43328099  0.98295122  0.52706116  1
  H  H264  1  0.40077033  0.90509327  0.60524387  1
  N  N265  1  0.38486816  0.93515107  0.50530997  1
  C  C266  1  0.04265317  0.79714811  0.54547807  1
  O  O267  1  0.16220603  0.96995247  0.66831959  1
  Zn  Zn268  1  0.36781028  0.97989381  0.72896715  1
  H  H269  1  0.45618407  0.54497906  0.64378208  1
  Zn  Zn270  1  0.02843144  0.97031357  0.68415727  1
  O  O271  1  0.47132737  0.53480325  0.70327872  1
  H  H272  1  0.39717238  0.82177357  0.74846283  1
  C  C273  1  0.22163767  0.69010721  0.85193413  1
  H  H274  1  0.25903489  0.71049093  0.92516333  1
  O  O275  1  0.31887947  0.78996201  0.80556370  1
  C  C276  1  0.49533406  0.52895629  0.81781144  1
  H  H277  1  0.08152761  0.50527097  0.75401994  1
  C  C278  1  0.27847514  0.65925393  0.82388974  1
  C  C279  1  0.29671343  0.57982600  0.81887364  1
  O  O280  1  0.09351472  0.73172713  0.77795163  1
  C  C281  1  0.32685324  0.72228064  0.79638746  1
  C  C282  1  0.40954773  0.58467744  0.99288562  1
  N  N283  1  0.48278928  0.51404575  0.89777637  1
  O  O284  1  0.08897840  0.74484698  0.91078582  1
  C  C285  1  0.02375427  0.94067450  0.78890711  1
  C  C286  1  0.16923478  0.64045377  0.87556121  1
  C  C287  1  0.45327471  0.85688726  0.93254347  1
  C  C288  1  0.31110232  0.67943608  0.94046892  1
  O  O289  1  0.40502596  0.88570870  0.90282921  1
  C  C290  1  0.34128422  0.70650992  0.98192118  1
  O  O291  1  0.05703353  0.62619321  0.92297788  1
  O  O292  1  0.19883915  0.92423489  0.92452364  1
  C  C293  1  0.07155686  0.95485327  0.86688203  1
  H  H294  1  0.21335775  0.75413025  0.84799212  1
  O  O295  1  0.37585961  0.69627457  0.76834031  1
  C  C296  1  0.17932531  0.56045067  0.87112834  1
  C  C297  1  0.10202526  0.67116779  0.90378817  1
  O  O298  1  0.08010527  0.89112576  0.78374040  1
  O  O299  1  0.44297675  0.85606769  0.97208548  1
  H  H300  1  0.31972696  0.57658777  0.89222860  1
  C  C301  1  0.33744952  0.60617670  0.92398184  1
  H  H302  1  0.12035061  0.91615946  0.85729559  1
  C  C303  1  0.38637583  0.55807839  0.95085039  1
  C  C304  1  0.09654983  0.65827372  0.76822360  1
  H  H305  1  0.34197597  0.55636245  0.79524139  1
  O  O306  1  0.27228995  0.97266075  0.79182840  1
  C  C307  1  0.04269491  0.60127343  0.79416142  1
  Zn  Zn308  1  0.31492075  0.95520550  0.91282089  1
  C  C309  1  0.23957176  0.53356811  0.84163936  1
  C  C310  1  0.04234379  0.52263199  0.78280355  1
  C  C311  1  0.14298047  0.96870667  0.93832017  1
  H  H312  1  0.47848564  0.57477444  0.90029112  1
  C  C313  1  0.01430290  0.97506617  0.83421071  1
  H  H314  1  0.14106536  0.51894874  0.88846954  1
  C  C315  1  0.07382536  0.99318787  0.90731580  1
  O  O316  1  0.13652578  0.99665737  0.97416892  1
  H  H317  1  0.49447077  0.82844349  0.84049621  1
  H  H318  1  0.32636620  0.76724367  0.98870082  1
  O  O319  1  0.88997012  0.25646436  0.17418283  1
  C  C320  1  0.94900998  0.44147441  0.04979931  1
  C  C321  1  0.81268717  0.07394781  0.23228032  1
  O  O322  1  0.64707331  0.30543945  0.00327483  1
  C  C323  1  0.51246646  0.38026925  0.11229269  1
  O  O324  1  0.55444605  0.03724218  0.12301227  1
  C  C325  1  0.78050512  0.02415534  0.19346176  1
  H  H326  1  0.54357494  0.38706431  0.14439996  1
  O  O327  1  0.54343609  0.34580368  0.21001194  1
  Zn  Zn328  1  0.67297924  0.04429189  0.22609300  1
  H  H329  1  0.62060938  0.32226251  0.08308746  1
  C  C330  1  0.89663527  0.08542228  0.22864524  1
  C  C331  1  0.86899967  0.42673723  0.04417124  1
  C  C332  1  0.55589208  0.33834117  0.07916020  1
  H  H333  1  0.58492122  0.22477000  0.24796752  1
  H  H334  1  0.92673207  0.06028556  0.19848141  1
  H  H335  1  0.94353597  0.14986970  0.02342692  1
  C  C336  1  0.92494281  0.27596440  0.14006139  1
  O  O337  1  0.89759935  0.25523283  0.10304653  1
  N  N338  1  0.83429009  0.49665143  0.11520402  1
  O  O339  1  0.74397780  0.42091621  0.07814303  1
  C  C340  1  0.80945235  0.44613444  0.08060862  1
  C  C341  1  0.52080365  0.33100124  0.03709640  1
  H  H342  1  0.97096141  0.46555306  0.08184430  1
  H  H343  1  0.77945537  0.36966689  0.00063214  1
  C  C344  1  0.83958800  0.39135595  0.00432708  1
  C  C345  1  0.57755593  0.30517591  0.00070351  1
  O  O346  1  0.63441338  0.28430256  0.44955185  1
  H  H347  1  0.69918991  0.06381437  0.42698653  1
  H  H348  1  0.87669732  0.27328167  0.36937894  1
  C  C349  1  0.90024827  0.13880107  0.30717165  1
  Zn  Zn350  1  0.66381756  0.34087669  0.38960233  1
  N  N351  1  0.63896679  0.06121566  0.41822674  1
  O  O352  1  0.80023796  0.11738994  0.40046927  1
  C  C353  1  0.76173683  0.10493341  0.27258440  1
  H  H354  1  0.55919850  0.02560651  0.29472346  1
  C  C355  1  0.77780373  0.24044658  0.48625040  1
  C  C356  1  0.88078586  0.33263176  0.35629223  1
  C  C357  1  0.75475564  0.32189153  0.30634455  1
  O  O358  1  0.72060519  0.27922495  0.33262368  1
  C  C359  1  0.82778668  0.36528068  0.32535103  1
  O  O360  1  0.55404011  0.32805615  0.35494310  1
  Zn  Zn361  1  0.61523872  0.40071394  0.25504281  1
  Zn  Zn362  1  0.98871677  0.02271129  0.41240134  1
  O  O363  1  0.50979617  0.40549126  0.30369117  1
  C  C364  1  0.95544479  0.45687518  0.35612438  1
  O  O365  1  0.98251690  0.20504920  0.39037146  1
  O  O366  1  0.72427368  0.34275800  0.26918562  1
  H  H367  1  0.85037955  0.12415196  0.45238504  1
  O  O368  1  0.50408187  0.18564492  0.42310973  1
  N  N369  1  0.88017048  0.14301903  0.48244465  1
  C  C370  1  0.94616296  0.37786151  0.36972309  1
  H  H371  1  0.88562211  0.42545792  0.45745308  1
  C  C372  1  0.65543113  0.31634907  0.48804923  1
  C  C373  1  0.78347646  0.11785661  0.36092743  1
  Zn  Zn374  1  0.66830983  0.08572580  0.33658261  1
  C  C375  1  0.84034694  0.44240912  0.31024709  1
  N  N376  1  0.57992048  0.08076730  0.28583523  1
  C  C377  1  0.81774319  0.11805085  0.31486816  1
  O  O378  1  0.76334480  0.40075773  0.42021776  1
  H  H379  1  0.93176609  0.16922142  0.33529585  1
  C  C380  1  0.50657516  0.37944328  0.34299109  1
  C  C381  1  0.95814368  0.03010246  0.47712030  1
  H  H382  1  0.72512983  0.15723639  0.26402109  1
  H  H383  1  0.74545796  0.21293259  0.45754494  1
  C  C384  1  0.75414782  0.47333095  0.41251714  1
  Zn  Zn385  1  0.61490459  0.16083109  0.45365785  1
  O  O386  1  0.69012560  0.49582987  0.39706500  1
  C  C387  1  0.88945973  0.48848406  0.44493818  1
  C  C388  1  0.93425213  0.12318165  0.26456129  1
  C  C389  1  0.51620374  0.13197470  0.27841859  1
  C  C390  1  0.90463438  0.48820220  0.32431595  1
  H  H391  1  0.79606087  0.46917871  0.28798534  1
  C  C392  1  0.52514690  0.20643455  0.25833126  1
  C  C393  1  0.80948157  0.04065201  0.63127197  1
  H  H394  1  0.86019484  0.37082005  0.67437632  1
  C  C395  1  0.79011451  0.06473926  0.67506333  1
  H  H396  1  0.63616961  0.18883912  0.63791696  1
  C  C397  1  0.68603435  0.14607394  0.63737126  1
  C  C398  1  0.70470181  0.11629173  0.59551436  1
  C  C399  1  0.64942820  0.13511565  0.55591882  1
  H  H400  1  0.93433977  0.24761246  0.55583444  1
  O  O401  1  0.64349134  0.32567364  0.65751590  1
  O  O402  1  0.59934076  0.33780761  0.72522009  1
  C  C403  1  0.68987267  0.43655485  0.70239000  1
  C  C404  1  0.88332661  0.26503510  0.53532792  1
  H  H405  1  0.65081909  0.11952585  0.72740019  1
  H  H406  1  0.73447581  0.40441464  0.55434839  1
  N  N407  1  0.70649419  0.14838420  0.71984108  1
  C  C408  1  0.64129558  0.36212022  0.69238058  1
  O  O409  1  0.96554682  0.36656445  0.59315307  1
  O  O410  1  0.59337218  0.18119629  0.56544250  1
  C  C411  1  0.89618189  0.38503768  0.58291909  1
  C  C412  1  0.77023782  0.06748174  0.59289425  1
  C  C413  1  0.84562324  0.33444565  0.55123090  1
  C  C414  1  0.85801811  0.33329476  0.70474252  1
  C  C415  1  0.76729974  0.35350635  0.54047055  1
  C  C416  1  0.72834663  0.12243728  0.67595109  1
  H  H417  1  0.73977727  0.43823502  0.63429978  1
  C  C418  1  0.81635841  0.26051759  0.70843298  1
  C  C419  1  0.74050772  0.46610061  0.66815556  1
  C  C420  1  0.93872250  0.09829441  0.50430605  1
  H  H421  1  0.82146974  0.05029481  0.70533967  1
  O  O422  1  0.86344991  0.44555414  0.59677814  1
  H  H423  1  0.78735034  0.05321498  0.56058644  1
  O  O424  1  0.97789571  0.11119703  0.53862948  1
  H  H425  1  0.79024318  0.23587955  0.67722845  1
  C  C426  1  0.81584124  0.21847695  0.74786020  1
  O  O427  1  0.66530663  0.11158734  0.51776328  1
  O  O428  1  0.51709141  0.12592444  0.67104444  1
  C  C429  1  0.68318116  0.46875412  0.74395436  1
  Zn  Zn430  1  0.52575208  0.23553995  0.71335292  1
  C  C431  1  0.73879761  0.30319637  0.50748542  1
  O  O432  1  0.61179454  0.36487757  0.50508780  1
  O  O433  1  0.99233145  0.18483621  0.71847685  1
  C  C434  1  0.90512297  0.35632792  0.74012109  1
  H  H435  1  0.94218616  0.40982106  0.73830758  1
  C  C436  1  0.85217518  0.21413562  0.50179709  1
  C  C437  1  0.95642194  0.03228858  0.84421414  1
  H  H438  1  0.64239828  0.44271659  0.76844757  1
  C  C439  1  0.95747307  0.33612195  0.81771755  1
  H  H440  1  0.66133043  0.35794620  0.93500020  1
  C  C441  1  0.86580284  0.24058176  0.78294980  1
  C  C442  1  0.56684059  0.21705842  0.84861358  1
  C  C443  1  0.63397091  0.31797840  0.91099079  1
  O  O444  1  0.76930626  0.09924762  0.78270939  1
  C  C445  1  0.66782377  0.31358804  0.86927882  1
  N  N446  1  0.88806349  0.11556057  0.89425582  1
  C  C447  1  0.88080940  0.15056558  0.93589617  1
  C  C448  1  0.63377050  0.26079025  0.83867687  1
  C  C449  1  0.53357018  0.16501396  0.81276670  1
  C  C450  1  0.53644397  0.21451290  0.89259681  1
  H  H451  1  0.87310260  0.20408403  0.81200251  1
  C  C452  1  0.73909928  0.36420197  0.85567260  1
  C  C453  1  0.97597972  0.39267627  0.97532992  1
  O  O454  1  0.56142094  0.17157674  0.77415300  1
  H  H455  1  0.65826355  0.24791479  0.80521946  1
  H  H456  1  0.90911143  0.05356089  0.82040316  1
  N  N457  1  0.52626406  0.27964130  0.96418181  1
  C  C458  1  0.56382664  0.27291567  0.92260882  1
  H  H459  1  0.83381200  0.09071914  0.88479918  1
  C  C460  1  0.91162588  0.30907272  0.77815880  1
  H  H461  1  0.86910794  0.36290137  0.93787004  1
  O  O462  1  0.82614202  0.15334589  0.96037584  1
  H  H463  1  0.89712447  0.45494102  0.85682940  1
  C  C464  1  0.95720381  0.06622589  0.88641102  1
  O  O465  1  0.77014356  0.36146866  0.81964903  1
  C  C466  1  0.93830698  0.49933246  0.83913389  1
  C  C467  1  0.96018901  0.18579988  0.95239026  1
  O  O468  1  0.76382393  0.40593491  0.88811290  1
  O  O469  1  0.95339995  0.30298205  0.85176087  1
  H  H470  1  0.99625052  0.20912210  0.88509440  1
  C  C471  1  0.98310251  0.17927609  0.99834353  1
  C  C472  1  0.89422947  0.37719724  0.97028525  1
  C  C473  1  0.99006857  0.47240841  0.80625758  1
  C  C474  1  0.76285311  0.14805033  0.75489209  1
  O  O475  1  0.64535182  0.51893611  0.22928917  1
  C  C476  1  0.99443231  0.64226851  0.09991560  1
  H  H477  1  0.63171455  0.60314829  0.10724044  1
  O  O478  1  0.70732655  0.53281545  0.16400302  1
  C  C479  1  0.51395300  0.77758900  0.16450637  1
  C  C480  1  0.57407855  0.59864511  0.12429194  1
  C  C481  1  0.95922374  0.57353522  0.11764670  1
  C  C482  1  0.57186053  0.56885151  0.16820669  1
  C  C483  1  0.89078447  0.67026863  0.04892399  1
  C  C484  1  0.64605993  0.53845816  0.18894920  1
  H  H485  1  0.79547813  0.58402169  0.04622550  1
  C  C486  1  0.84860074  0.60440845  0.06401557  1
  C  C487  1  0.88467894  0.55781081  0.09717589  1
  H  H488  1  0.60142204  0.84668405  0.12334628  1
  H  H489  1  0.98116451  0.53621372  0.14569370  1
  H  H490  1  0.54921819  0.72296746  0.16503036  1
  C  C491  1  0.50851223  0.57599271  0.19767780  1
  H  H492  1  0.52312888  0.63424384  0.03666284  1
  C  C493  1  0.85812241  0.73129247  0.01408623  1
  C  C494  1  0.53922180  0.83853714  0.13757944  1
  H  H495  1  0.50628823  0.55240448  0.23175423  1
  C  C496  1  0.50466847  0.98870021  0.12849803  1
  C  C497  1  0.96347392  0.69084608  0.06669820  1
  O  O498  1  0.79662053  0.98205818  0.16380030  1
  H  H499  1  0.79899344  0.50608179  0.14483857  1
  H  H500  1  0.99923158  0.74082548  0.05830658  1
  C  C501  1  0.50417742  0.63252948  0.10856706  1
  O  O502  1  0.78710069  0.73296567  0.01027411  1
  C  C503  1  0.92934049  0.57167433  0.30908862  1
  H  H504  1  0.78346033  0.62794206  0.38493820  1
  H  H505  1  0.70803775  0.93229237  0.45661120  1
  C  C506  1  0.61335876  0.85416547  0.44273036  1
  Zn  Zn507  1  0.87452677  0.79730229  0.34030666  1
  C  C508  1  0.91953022  0.92262608  0.41377438  1
  O  O509  1  0.88644250  0.61422767  0.28821381  1
  Zn  Zn510  1  0.83647596  0.79425426  0.45917370  1
  C  C511  1  0.98558292  0.83367852  0.31743887  1
  O  O512  1  0.63185918  0.72758542  0.47322946  1
  C  C513  1  0.85347396  0.88586979  0.38913814  1
  C  C514  1  0.53485753  0.84004279  0.42729322  1
  C  C515  1  0.59675413  0.87223211  0.28471982  1
  O  O516  1  0.54944279  0.92154174  0.28338633  1
  O  O517  1  0.72798893  0.81531791  0.48504594  1
  C  C518  1  0.82759512  0.52521900  0.41998589  1
  C  C519  1  0.64831804  0.92711554  0.44073677  1
  C  C520  1  0.82933922  0.60154382  0.40276339  1
  C  C521  1  0.89624185  0.64636747  0.41480575  1
  C  C522  1  0.52101277  0.97529770  0.40631415  1
  O  O523  1  0.64011402  0.81908812  0.28543781  1
  O  O524  1  0.79120353  0.91383759  0.38144533  1
  C  C525  1  0.66165532  0.79040549  0.46666710  1
  N  N526  1  0.89853700  0.72878182  0.41068898  1
  H  H527  1  0.50592489  0.78170152  0.43090087  1
  H  H528  1  0.95086745  0.75739040  0.41724375  1
  C  C529  1  0.95865913  0.53247690  0.45106351  1
  C  C530  1  0.96405001  0.61008236  0.43564002  1
  H  H531  1  0.96353874  0.96447822  0.32423810  1
  C  C532  1  0.89814380  0.98064652  0.44978856  1
  O  O533  1  0.99425303  0.59758447  0.32497350  1
  H  H534  1  0.83389103  0.99341389  0.45378355  1
  C  C535  1  0.60118411  0.98729635  0.42258638  1
  H  H536  1  0.95247238  0.83541003  0.59202712  1
  H  H537  1  0.88641183  0.72327261  0.59568954  1
  H  H538  1  0.81241180  0.84952027  0.58225408  1
  H  H539  1  0.68110498  0.86023627  0.55354413  1
  O  O540  1  0.90691735  0.95340179  0.65950707  1
  C  C541  1  0.61980782  0.86798865  0.56384589  1
  C  C542  1  0.84042043  0.74580096  0.61865503  1
  H  H543  1  0.77131841  0.69253789  0.72239193  1
  O  O544  1  0.50457277  0.75048980  0.67693334  1
  C  C545  1  0.59227288  0.82606497  0.60123567  1
  O  O546  1  0.95252576  0.63473633  0.66360062  1
  H  H547  1  0.81901458  0.61481729  0.73187487  1
  C  C548  1  0.75352505  0.84838568  0.64920285  1
  C  C549  1  0.79755205  0.81628363  0.61389141  1
  H  H550  1  0.72970886  0.90694411  0.64464180  1
  H  H551  1  0.62814936  0.78817529  0.62201889  1
  C  C552  1  0.57241137  0.92328375  0.54216004  1
  C  C553  1  0.77782382  0.73349377  0.69445047  1
  O  O554  1  0.66062852  0.90652481  0.73387474  1
  H  H555  1  0.53379693  0.95763889  0.69747948  1
  N  N556  1  0.83293910  0.57152407  0.64590250  1
  C  C557  1  0.82506022  0.70477495  0.65862754  1
  C  C558  1  0.74253455  0.81071546  0.69085583  1
  C  C559  1  0.78060731  0.56374740  0.72325070  1
  C  C560  1  0.51486705  0.84417270  0.61578680  1
  C  C561  1  0.88319906  0.63234118  0.66162279  1
  H  H562  1  0.85877611  0.53065001  0.62386497  1
  C  C563  1  0.78726247  0.53034846  0.67924058  1
  C  C564  1  0.70288536  0.85212408  0.72893630  1
  O  O565  1  0.89965499  0.96381870  0.58666379  1
  H  H566  1  0.50317974  0.65660276  0.59224221  1
  C  C567  1  0.87736497  0.98181030  0.62431458  1
  O  O568  1  0.90938238  0.80488467  0.51679179  1
  C  C569  1  0.50621772  0.54997217  0.73677296  1
  C  C570  1  0.98191345  0.78886494  0.50776968  1
  H  H571  1  0.97659879  0.83954417  0.67572726  1
  O  O572  1  0.54856841  0.60985598  0.74033212  1
  H  H573  1  0.59407291  0.95476969  0.51177583  1
  H  H574  1  0.99411743  0.68550574  0.83712235  1
  Zn  Zn575  1  0.97055842  0.74099719  0.94298931  1
  O  O576  1  0.88566376  0.67858804  0.90137133  1
  C  C577  1  0.58374050  0.67657551  0.92626166  1
  C  C578  1  0.61141592  0.61191063  0.95746089  1
  C  C579  1  0.88676500  0.60610713  0.89217700  1
  C  C580  1  0.60580561  0.67522638  0.88202896  1
  C  C581  1  0.93640299  0.57720209  0.85391383  1
  O  O582  1  0.66129553  0.56072029  0.94566105  1
  N  N583  1  0.59104306  0.71900004  0.80522431  1
  Zn  Zn584  1  0.70737797  0.75806522  0.77729865  1
  O  O585  1  0.85760447  0.55380180  0.91683237  1
  H  H586  1  0.60219801  0.65984914  0.79925733  1
  O  O587  1  0.68720380  0.54801325  0.83112218  1
  H  H588  1  0.52001836  0.58686277  0.82076078  1
  H  H589  1  0.64270304  0.62853397  0.87164375  1
  C  C590  1  0.57496017  0.73025105  0.85170699  1
  O  O591  1  0.74975369  0.64700923  0.80289946  1
  C  C592  1  0.72626297  0.57693463  0.79986719  1
  C  C593  1  0.98919180  0.62364901  0.82734300  1
  Zn  Zn594  1  0.73240950  0.51962130  0.89687666  1
  C  C595  1  0.53663781  0.73964087  0.94139774  1
  O  O596  1  0.58128564  0.61557007  0.99469051  1
  C  C597  1  0.52112469  0.78940289  0.86584022  1
  C  C598  1  0.50557503  0.79178200  0.91130209  1
  C  C599  1  0.72986895  0.53593557  0.75538480  1
  Zn  Zn600  1  0.50767729  0.73532377  0.75251700  1
  O  O601  1  0.98066247  0.96229153  0.75801400  1
  H  H602  1  0.52210140  0.74327649  0.97850636  1
  O  O603  1  0.90663176  0.78183209  0.99583459  1
