# generated using pymatgen
data_Zn7H30(C13O4)6
_symmetry_space_group_name_H-M   'P 1'
_cell_length_a   21.82299218
_cell_length_b   20.86990037
_cell_length_c   19.86869821
_cell_angle_alpha   90.00000000
_cell_angle_beta   90.00000000
_cell_angle_gamma   90.00000000
_symmetry_Int_Tables_number   1
_chemical_formula_structural   Zn7H30(C13O4)6
_chemical_formula_sum   'Zn28 H120 C312 O96'
_cell_volume   9049.07288089
_cell_formula_units_Z   4
loop_
 _symmetry_equiv_pos_site_id
 _symmetry_equiv_pos_as_xyz
  1  'x, y, z'
loop_
 _atom_site_type_symbol
 _atom_site_label
 _atom_site_symmetry_multiplicity
 _atom_site_fract_x
 _atom_site_fract_y
 _atom_site_fract_z
 _atom_site_occupancy
  C  C0  1  0.26346277  0.20174301  0.13634603  1
  H  H1  1  0.34199377  0.49329285  0.12276289  1
  C  C2  1  0.27472177  0.26833705  0.14316847  1
  H  H3  1  0.08970677  0.48066115  0.18692162  1
  C  C4  1  0.05781941  0.19775309  0.14596909  1
  C  C5  1  0.10282029  0.24366033  0.16604357  1
  H  H6  1  0.24863266  0.11193607  0.19127366  1
  H  H7  1  0.25315333  0.47156751  0.02838782  1
  H  H8  1  0.25797912  0.18330949  0.08357103  1
  C  C9  1  0.28860165  0.31306192  0.08798246  1
  C  C10  1  0.30984874  0.35758737  0.05593030  1
  H  H11  1  0.17947297  0.30783591  0.13999820  1
  H  H12  1  0.28804013  0.34961906  0.21150983  1
  C  C13  1  0.12643164  0.27279908  0.05245912  1
  C  C14  1  0.18195350  0.45172908  0.12644132  1
  H  H15  1  0.07526462  0.37414628  0.11751537  1
  C  C16  1  0.38623766  0.49936214  0.21978028  1
  C  C17  1  0.22505499  0.45575198  0.16287175  1
  C  C18  1  0.01901805  0.43595871  0.05277157  1
  H  H19  1  0.40207063  0.17104822  0.18287858  1
  C  C20  1  0.07278630  0.41817156  0.08941013  1
  C  C21  1  0.12504917  0.46011945  0.08324270  1
  C  C22  1  0.25735651  0.16267645  0.19468714  1
  C  C23  1  0.14070086  0.27972182  0.12157519  1
  C  C24  1  0.33701729  0.41590287  0.02950453  1
  H  H25  1  0.46617999  0.00712046  0.06976257  1
  H  H26  1  0.41904138  0.11746013  0.07388522  1
  O  O27  1  0.44538360  0.31017240  0.13195502  1
  H  H28  1  0.03235287  0.17020142  0.18311955  1
  C  C29  1  0.28082598  0.46926587  0.20479839  1
  C  C30  1  0.27931432  0.29804377  0.20883648  1
  C  C31  1  0.41849457  0.12209828  0.18229048  1
  C  C32  1  0.01674452  0.49839376  0.02241348  1
  C  C33  1  0.30261473  0.47356856  0.01888428  1
  C  C34  1  0.04660563  0.19133874  0.07748342  1
  C  C35  1  0.10718485  0.24683824  0.23884488  1
  C  C36  1  0.45615591  0.02909796  0.11830685  1
  C  C37  1  0.33600137  0.48951846  0.17746818  1
  C  C38  1  0.43182648  0.09121185  0.12170587  1
  C  C39  1  0.48397996  0.33903129  0.16464399  1
  C  C40  1  0.00298981  0.13851378  0.06396166  1
  C  C41  1  0.45180786  0.02117245  0.24361868  1
  C  C42  1  0.43010524  0.08592499  0.24354540  1
  H  H43  1  0.15369789  0.30501551  0.01483121  1
  C  C44  1  0.40008568  0.41555065  0.01561272  1
  H  H45  1  0.42637184  0.37035807  0.01930672  1
  C  C46  1  0.08052596  0.23110978  0.02988549  1
  C  C47  1  0.46694118  0.35661045  0.23685390  1
  H  H48  1  0.38080637  0.30685763  0.23027960  1
  C  C49  1  0.07638158  0.14088440  0.45527367  1
  Zn  Zn50  1  0.27080840  0.32649187  0.43338100  1
  C  C51  1  0.10472548  0.23464922  0.29850035  1
  C  C52  1  0.42737885  0.11566385  0.31165589  1
  C  C53  1  0.41113406  0.33695561  0.26019444  1
  H  H54  1  0.20408288  0.15939529  0.36973686  1
  H  H55  1  0.26816207  0.16023489  0.30006628  1
  C  C56  1  0.27869732  0.09182358  0.38740740  1
  C  C57  1  0.34105140  0.17210804  0.46024340  1
  C  C58  1  0.43463404  0.39042458  0.36983963  1
  H  H59  1  0.04642682  0.12935953  0.35170014  1
  C  C60  1  0.07037008  0.16009624  0.38849588  1
  O  O61  1  0.26186839  0.44370640  0.41271457  1
  Zn  Zn62  1  0.40292667  0.19103697  0.38032919  1
  C  C63  1  0.21547733  0.10886154  0.37817693  1
  C  C64  1  0.29744589  0.02726222  0.40008488  1
  C  C65  1  0.48479811  0.05348663  0.48129010  1
  C  C66  1  0.10135592  0.21868345  0.36980428  1
  C  C67  1  0.28945974  0.29412849  0.33478054  1
  H  H68  1  0.11798526  0.07089639  0.36837834  1
  O  O69  1  0.49157863  0.47077738  0.43892769  1
  C  C70  1  0.27300127  0.46574828  0.27613342  1
  C  C71  1  0.39544438  0.35125207  0.32918737  1
  C  C72  1  0.13705694  0.25548374  0.41446938  1
  C  C73  1  0.44822887  0.10215266  0.37370404  1
  C  C74  1  0.04005255  0.07325031  0.46679391  1
  H  H75  1  0.15965485  0.29657451  0.39213067  1
  C  C76  1  0.33560719  0.33252534  0.35535946  1
  H  H77  1  0.22807383  0.45198499  0.29536834  1
  C  C78  1  0.32898815  0.14024822  0.40202957  1
  C  C79  1  0.16951372  0.06056254  0.37699707  1
  H  H80  1  0.09959571  0.45457063  0.45692522  1
  C  C81  1  0.30571361  0.47327009  0.39255081  1
  C  C82  1  0.32181331  0.47853348  0.31686443  1
  H  H83  1  0.42644564  0.39992651  0.42537630  1
  C  C84  1  0.14004632  0.23673920  0.48291863  1
  C  C85  1  0.00859609  0.45874160  0.40846806  1
  C  C86  1  0.37858924  0.49301673  0.28925186  1
  C  C87  1  0.48877130  0.40845942  0.33882693  1
  C  C88  1  0.48540796  0.05373483  0.40816665  1
  C  C89  1  0.10727561  0.18013265  0.49932082  1
  C  C90  1  0.27735329  0.26191616  0.26784662  1
  C  C91  1  0.05227907  0.43212598  0.45027546  1
  H  H92  1  0.34327751  0.00847100  0.40792941  1
  C  C93  1  0.26475699  0.19355144  0.25743748  1
  O  O94  1  0.02031752  0.04940047  0.41486131  1
  C  C95  1  0.03966528  0.37433410  0.48574759  1
  O  O96  1  0.04600488  0.02048373  0.66447513  1
  C  C97  1  0.26213601  0.10731075  0.60968961  1
  C  C98  1  0.01401291  0.15534333  0.64581228  1
  C  C99  1  0.09237433  0.17359963  0.73152847  1
  O  O100  1  0.21207362  0.44479181  0.64017461  1
  H  H101  1  0.26514621  0.14441494  0.71408570  1
  C  C102  1  0.27477972  0.15217868  0.65850109  1
  C  C103  1  0.22259335  0.04926378  0.63279267  1
  C  C104  1  0.31623490  0.26857202  0.69002226  1
  O  O105  1  0.17085687  0.25962035  0.59612568  1
  C  C106  1  0.01878179  0.22082493  0.63096701  1
  H  H107  1  0.34580576  0.26613831  0.56097279  1
  O  O108  1  0.19486354  0.01888246  0.58700567  1
  Zn  Zn109  1  0.21218314  0.34523953  0.64684818  1
  O  O110  1  0.31088105  0.32174387  0.66574248  1
  C  C111  1  0.43981756  0.41968436  0.68808781  1
  H  H112  1  0.46152189  0.24383561  0.67900748  1
  C  C113  1  0.31999891  0.21873208  0.57684026  1
  C  C114  1  0.31361626  0.16813337  0.52990908  1
  O  O115  1  0.21039486  0.31909905  0.52108693  1
  O  O116  1  0.13095854  0.46240202  0.57411786  1
  O  O117  1  0.21421673  0.03819812  0.69184594  1
  H  H118  1  0.10356760  0.16706433  0.55217584  1
  C  C119  1  0.30312681  0.21047565  0.64369970  1
  H  H120  1  0.26536108  0.07136619  0.51240190  1
  C  C121  1  0.09726963  0.23760505  0.71459836  1
  H  H122  1  0.45234786  0.08339351  0.50816943  1
  C  C123  1  0.06235595  0.26241408  0.66512666  1
  C  C124  1  0.27867462  0.11125798  0.54436815  1
  C  C125  1  0.05739198  0.05857123  0.70909861  1
  O  O126  1  0.14851532  0.33607362  0.73388133  1
  H  H127  1  0.06720378  0.31405481  0.64815556  1
  C  C128  1  0.17930758  0.47826860  0.59966962  1
  C  C129  1  0.05477327  0.13086100  0.69528615  1
  C  C130  1  0.44300522  0.49043521  0.71178856  1
  C  C131  1  0.17412826  0.27410791  0.53571777  1
  C  C132  1  0.48615288  0.40109687  0.63800409  1
  O  O133  1  0.03744937  0.04404390  0.52273771  1
  H  H134  1  0.41984579  0.31920799  0.72848878  1
  H  H135  1  0.07484800  0.35080178  0.51798344  1
  O  O136  1  0.47899337  0.03081796  0.62676547  1
  Zn  Zn137  1  0.36084329  0.45248589  0.74885719  1
  C  C138  1  0.41209296  0.36976876  0.74017238  1
  H  H139  1  0.42618570  0.46663978  0.88963314  1
  C  C140  1  0.25449059  0.16228117  0.88857027  1
  C  C141  1  0.40541188  0.33986388  0.86209079  1
  C  C142  1  0.42418078  0.45729509  0.83170460  1
  C  C143  1  0.18219543  0.40186982  0.90210345  1
  O  O144  1  0.35526973  0.33276502  0.88857499  1
  O  O145  1  0.20951675  0.13745150  0.91125790  1
  O  O146  1  0.16369890  0.36749174  0.94580541  1
  C  C147  1  0.03778348  0.49602492  0.86446380  1
  O  O148  1  0.45575338  0.32235257  0.88713089  1
  H  H149  1  0.06440706  0.41796816  0.92665631  1
  C  C150  1  0.39128512  0.09361619  0.78510390  1
  H  H151  1  0.22439006  0.04657945  0.85054098  1
  Zn  Zn152  1  0.26992167  0.29998023  0.83732407  1
  C  C153  1  0.31016959  0.01267776  0.80162203  1
  H  H154  1  0.36832660  0.18634983  0.82638485  1
  C  C155  1  0.07966458  0.45231853  0.89185957  1
  C  C156  1  0.35215157  0.13848253  0.81789800  1
  C  C157  1  0.29528883  0.12030689  0.83910144  1
  C  C158  1  0.41358098  0.39025808  0.81050052  1
  O  O159  1  0.26688745  0.22127721  0.90236038  1
  C  C160  1  0.36782505  0.02920461  0.77824786  1
  C  C161  1  0.27031974  0.05928903  0.82909542  1
  H  H162  1  0.12192267  0.15914368  0.77401365  1
  O  O163  1  0.22872124  0.38849467  0.86374507  1
  O  O164  1  0.17945323  0.25358956  0.79062384  1
  H  H165  1  0.06630348  0.23013213  0.97747001  1
  C  C166  1  0.13976026  0.45155656  0.87049018  1
  C  C167  1  0.45284854  0.09840463  0.75720412  1
  O  O168  1  0.32245332  0.26196336  0.75192613  1
  H  H169  1  0.20561848  0.48659803  0.79788270  1
  O  O170  1  0.08861325  0.04076800  0.75925486  1
  C  C171  1  0.15933623  0.49005626  0.81787368  1
  C  C172  1  0.49436061  0.47252331  0.97524184  1
  C  C173  1  0.42578696  0.47116241  0.99112410  1
  C  C174  1  0.14323093  0.27869255  0.75060239  1
  C  C175  1  0.46792695  0.99249619  0.18053856  1
  C  C176  1  0.33042187  0.52932079  0.00141411  1
  C  C177  1  0.49705666  0.92949527  0.19075125  1
  O  O178  1  0.24408943  0.59118372  0.01553208  1
  H  H179  1  0.17134716  0.53740288  0.03723775  1
  C  C180  1  0.08575652  0.51572384  0.22775293  1
  C  C181  1  0.06929480  0.53905800  0.01555331  1
  C  C182  1  0.44610645  0.51741085  0.18740547  1
  C  C183  1  0.12550974  0.51569255  0.04449873  1
  O  O184  1  0.44788371  0.51561443  0.12605997  1
  O  O185  1  0.49071044  0.53898577  0.22192544  1
  C  C186  1  0.03025622  0.54304307  0.24404273  1
  H  H187  1  0.18689796  0.51580858  0.24289490  1
  C  C188  1  0.40474548  0.67079020  0.39304146  1
  H  H189  1  0.45338462  0.98976031  0.28981297  1
  C  C190  1  0.02661728  0.59161412  0.29744614  1
  H  H191  1  0.08037299  0.64593053  0.36902037  1
  H  H192  1  0.14543773  0.96177754  0.37995774  1
  Zn  Zn193  1  0.42549083  0.54488391  0.44319891  1
  C  C194  1  0.08288780  0.60769128  0.33064702  1
  C  C195  1  0.33191678  0.81715231  0.46815529  1
  C  C196  1  0.24748202  0.98284648  0.39911181  1
  C  C197  1  0.29380738  0.87028475  0.43991307  1
  O  O198  1  0.37611915  0.67265506  0.33810981  1
  C  C199  1  0.22452811  0.61874204  0.40651860  1
  C  C200  1  0.19884478  0.60210692  0.34592426  1
  O  O201  1  0.44886741  0.63206460  0.39988169  1
  C  C202  1  0.13922541  0.58231224  0.31112208  1
  C  C203  1  0.38990900  0.72292466  0.44592358  1
  C  C204  1  0.35003823  0.76996604  0.42134450  1
  Zn  Zn205  1  0.28723733  0.62969814  0.32722485  1
  C  C206  1  0.22818598  0.62152184  0.47957990  1
  C  C207  1  0.26788731  0.91659513  0.41860008  1
  H  H208  1  0.33033734  0.77366657  0.36948452  1
  O  O209  1  0.34194066  0.50176776  0.43321807  1
  C  C210  1  0.18405645  0.99668065  0.38602073  1
  H  H211  1  0.32860200  0.65687451  0.47546979  1
  H  H212  1  0.49481207  0.87440371  0.33544998  1
  H  H213  1  0.41717979  0.50088221  0.32461751  1
  O  O214  1  0.49482857  0.84669543  0.45798471  1
  H  H215  1  0.01768498  0.50356982  0.38151232  1
  C  C216  1  0.14049322  0.53398452  0.26150964  1
  O  O217  1  0.40208319  0.81851477  0.66345836  1
  C  C218  1  0.39212536  0.77117187  0.55475458  1
  C  C219  1  0.41863805  0.77647703  0.62441604  1
  C  C220  1  0.31443801  0.59994386  0.56430081  1
  O  O221  1  0.41914684  0.57038262  0.54668704  1
  C  C222  1  0.29224915  0.64077975  0.51056877  1
  O  O223  1  0.46082128  0.73735586  0.63749266  1
  C  C224  1  0.07100440  0.81860997  0.65254772  1
  H  H225  1  0.46547141  0.52253495  0.67142227  1
  O  O226  1  0.38897108  0.60629892  0.64509502  1
  H  H227  1  0.04660492  0.83341523  0.54507324  1
  H  H228  1  0.33643853  0.85412721  0.57001253  1
  C  C229  1  0.14482050  0.57964423  0.73406194  1
  Zn  Zn230  1  0.23007435  0.63693789  0.59012799  1
  C  C231  1  0.27469925  0.54553737  0.58982141  1
  C  C232  1  0.03805074  0.80727668  0.59322715  1
  O  O233  1  0.10609902  0.62060073  0.72008587  1
  O  O234  1  0.19827368  0.58209867  0.71893019  1
  Zn  Zn235  1  0.47573816  0.64847622  0.67652696  1
  H  H236  1  0.39646141  0.99524057  0.74939844  1
  C  C237  1  0.37962176  0.59375331  0.58413044  1
  C  C238  1  0.12302836  0.86558968  0.64676370  1
  O  O239  1  0.12850155  0.89244265  0.59141388  1
  O  O240  1  0.15070959  0.87994533  0.69879531  1
  C  C241  1  0.20712004  0.54020933  0.57703599  1
  C  C242  1  0.05985842  0.78737633  0.71326748  1
  H  H243  1  0.29842893  0.50390471  0.61731604  1
  C  C244  1  0.35168864  0.81895595  0.53491966  1
  Zn  Zn245  1  0.10174671  0.99365601  0.57601294  1
  C  C246  1  0.01270670  0.73958296  0.70955479  1
  C  C247  1  0.18370317  0.57905165  0.52214998  1
  H  H248  1  0.13544489  0.57411364  0.50235619  1
  H  H249  1  0.44292753  0.68329937  0.52674355  1
  C  C250  1  0.41049403  0.72212391  0.51039256  1
  C  C251  1  0.43663609  0.51117618  0.78127018  1
  C  C252  1  0.07947445  0.76421965  0.89422990  1
  C  C253  1  0.08554765  0.64844301  0.94553942  1
  C  C254  1  0.11053978  0.81289554  0.86378804  1
  C  C255  1  0.10810501  0.70583931  0.90233734  1
  H  H256  1  0.19156661  0.65085267  0.88644805  1
  C  C257  1  0.25419097  0.73158907  0.80928118  1
  C  C258  1  0.39146336  0.52793267  0.98385867  1
  H  H259  1  0.41794804  0.56924362  0.97240604  1
  C  C260  1  0.28917924  0.94513022  0.78879150  1
  C  C261  1  0.11766593  0.53266382  0.78874059  1
  C  C262  1  0.07235393  0.87625412  0.85963147  1
  C  C263  1  0.07617919  0.59977392  0.97580919  1
  H  H264  1  0.46788572  0.69444724  0.98126188  1
  O  O265  1  0.41960094  0.59398638  0.85788660  1
  C  C266  1  0.16785662  0.69843267  0.87892225  1
  Zn  Zn267  1  0.35871887  0.67021791  0.88213749  1
  O  O268  1  0.44535345  0.79770022  0.81600454  1
  C  C269  1  0.44972788  0.77145559  0.87217438  1
  C  C270  1  0.44997622  0.57319019  0.80915890  1
  O  O271  1  0.40526011  0.75238731  0.90387513  1
  Zn  Zn272  1  0.15611901  0.97139615  0.75098212  1
  C  C273  1  0.16802956  0.80820541  0.83635707  1
  C  C274  1  0.19465937  0.74750652  0.84123361  1
  O  O275  1  0.02045615  0.87216813  0.88237061  1
  H  H276  1  0.19146913  0.84999521  0.81186326  1
  O  O277  1  0.09301765  0.92169762  0.82868125  1
  H  H278  1  0.03140887  0.77054269  0.90839932  1
  O  O279  1  0.27759978  0.67985453  0.82850626  1
  C  C280  1  0.05823353  0.54060503  0.81314447  1
  O  O281  1  0.23613325  0.93313236  0.80646130  1
  O  O282  1  0.27873340  0.76674308  0.76554521  1
  H  H283  1  0.02644461  0.57671398  0.79402675  1
  O  O284  1  0.48765211  0.60670276  0.77781742  1
  O  O285  1  0.32489597  0.64332002  0.97950139  1
  C  C286  1  0.29575245  0.59382833  0.99774771  1
  O  O287  1  0.32196095  0.90719375  0.75544599  1
  H  H288  1  0.08334249  0.80190310  0.75931575  1
  Zn  Zn289  1  0.36025720  0.81537673  0.76675533  1
  C  C290  1  0.77138997  0.03320441  0.16085493  1
  O  O291  1  0.77379462  0.08739522  0.18661385  1
  C  C292  1  0.70963863  0.25010710  0.10119921  1
  H  H293  1  0.82639292  0.26593060  0.04736645  1
  O  O294  1  0.53704871  0.35146982  0.14284522  1
  C  C295  1  0.82073557  0.01968577  0.10945359  1
  C  C296  1  0.72769575  0.29237824  0.04145300  1
  O  O297  1  0.65500524  0.25506986  0.12063178  1
  C  C298  1  0.91481297  0.04776375  0.05893051  1
  C  C299  1  0.86444619  0.06728234  0.09777623  1
  O  O300  1  0.74385949  0.21350668  0.13264789  1
  O  O301  1  0.68614474  0.41052863  0.18436731  1
  Zn  Zn302  1  0.62407102  0.32982640  0.18818421  1
  H  H303  1  0.70089388  0.47388985  0.02083137  1
  H  H304  1  0.86227433  0.11363185  0.12402225  1
  C  C305  1  0.96410149  0.09749592  0.05650893  1
  H  H306  1  0.97891588  0.40415381  0.04957453  1
  O  O307  1  0.63223800  0.49370448  0.14493530  1
  C  C308  1  0.78858688  0.29023226  0.01834208  1
  Zn  Zn309  1  0.70120110  0.15668506  0.21385644  1
  H  H310  1  0.78624979  0.42544994  0.08236029  1
  C  C311  1  0.67698104  0.46868015  0.17517447  1
  H  H312  1  0.63414851  0.31579156  0.02195765  1
  C  C313  1  0.79745756  0.45386711  0.03614258  1
  C  C314  1  0.68169234  0.32147927  0.00733142  1
  C  C315  1  0.74834666  0.48381109  0.00386021  1
  C  C316  1  0.85602656  0.45486092  0.00536454  1
  H  H317  1  0.89300645  0.42385013  0.02049709  1
  C  C318  1  0.90008603  0.46120483  0.36165254  1
  H  H319  1  0.76378954  0.21433516  0.40061136  1
  O  O320  1  0.64109224  0.31114880  0.29177009  1
  C  C321  1  0.67893827  0.27603048  0.32241841  1
  C  C322  1  0.64267481  0.11341246  0.40561193  1
  C  C323  1  0.65898649  0.08370767  0.33554736  1
  H  H324  1  0.71947947  0.06503905  0.45155367  1
  O  O325  1  0.70892281  0.23298847  0.29298653  1
  C  C326  1  0.94835830  0.42964584  0.40194142  1
  C  C327  1  0.52591555  0.45035626  0.38858816  1
  C  C328  1  0.57988295  0.17755554  0.47840937  1
  C  C329  1  0.68874283  0.28620473  0.39581341  1
  C  C330  1  0.73649694  0.25075980  0.42576966  1
  C  C331  1  0.93282138  0.37264165  0.43888092  1
  O  O332  1  0.64086559  0.11037472  0.28500850  1
  C  C333  1  0.52658104  0.01317984  0.37166724  1
  O  O334  1  0.70101173  0.04160609  0.33218761  1
  C  C335  1  0.65212899  0.33354493  0.42525721  1
  H  H336  1  0.56529215  0.17322359  0.37165347  1
  O  O337  1  0.57706328  0.46516810  0.38277104  1
  C  C338  1  0.59253380  0.15422956  0.41414183  1
  C  C339  1  0.67938872  0.09857414  0.45964222  1
  C  C340  1  0.52550614  0.22642616  0.47618760  1
  H  H341  1  0.62001844  0.36262077  0.39668504  1
  O  O342  1  0.50991412  0.24095110  0.41733872  1
  H  H343  1  0.88364406  0.35691302  0.44588610  1
  H  H344  1  0.52936685  0.01710798  0.31795457  1
  C  C345  1  0.86188241  0.48802524  0.32710988  1
  C  C346  1  0.76055505  0.48363723  0.26286227  1
  H  H347  1  0.55246350  0.41420247  0.25091746  1
  C  C348  1  0.66422644  0.34470736  0.49342020  1
  C  C349  1  0.50871189  0.39361457  0.27322621  1
  C  C350  1  0.98074617  0.34569141  0.47892988  1
  H  H351  1  0.75351403  0.43492281  0.28101218  1
  C  C352  1  0.74262738  0.26542910  0.49159945  1
  O  O353  1  0.79592427  0.24199074  0.59195667  1
  C  C354  1  0.64210137  0.21710680  0.67395679  1
  C  C355  1  0.97365669  0.28404925  0.51827071  1
  C  C356  1  0.75713083  0.46539305  0.72330743  1
  H  H357  1  0.75130613  0.46641888  0.60979396  1
  H  H358  1  0.58804754  0.17243924  0.58562476  1
  H  H359  1  0.64211184  0.31584238  0.63103992  1
  C  C360  1  0.52580335  0.35100619  0.63299399  1
  H  H361  1  0.72120583  0.32372924  0.58366960  1
  H  H362  1  0.98280575  0.12375704  0.61729379  1
  C  C363  1  0.74025351  0.08325044  0.62076605  1
  C  C364  1  0.62639596  0.38846978  0.53654374  1
  C  C365  1  0.60958233  0.15836315  0.53516040  1
  C  C366  1  0.63682025  0.41292775  0.71902516  1
  Zn  Zn367  1  0.54511144  0.43035274  0.56057305  1
  C  C368  1  0.83260121  0.12792207  0.67449751  1
  H  H369  1  0.62420230  0.12000792  0.71013373  1
  C  C370  1  0.79127785  0.22811927  0.53207450  1
  C  C371  1  0.70222835  0.09995038  0.57987092  1
  C  C372  1  0.63117651  0.41876965  0.59652801  1
  C  C373  1  0.72818106  0.45900445  0.65860638  1
  C  C374  1  0.71294919  0.31330411  0.52851602  1
  C  C375  1  0.51132397  0.23879356  0.68208757  1
  C  C376  1  0.80026784  0.01958991  0.70965375  1
  C  C377  1  0.60541029  0.16791340  0.70035801  1
  C  C378  1  0.67004591  0.43013085  0.65983917  1
  C  C379  1  0.55273179  0.28966723  0.65821197  1
  H  H380  1  0.59109684  0.39114497  0.71549945  1
  C  C381  1  0.66164205  0.11853488  0.52542437  1
  C  C382  1  0.79173207  0.07495308  0.67086382  1
  C  C383  1  0.61746413  0.27620744  0.65254082  1
  H  H384  1  0.80242090  0.49032274  0.72715794  1
  H  H385  1  0.82336152  0.17152264  0.64049832  1
  C  C386  1  0.53899475  0.17922397  0.70052819  1
  H  H387  1  0.69112700  0.20721921  0.66358694  1
  O  O388  1  0.50658634  0.25008875  0.52674502  1
  C  C389  1  0.52359016  0.01484051  0.51431651  1
  C  C390  1  0.52316921  0.01092792  0.59460331  1
  Zn  Zn391  1  0.92153323  0.19932565  0.51280452  1
  O  O392  1  0.82007275  0.18440080  0.50270698  1
  C  C393  1  0.98593262  0.24168261  0.56921406  1
  C  C394  1  0.50268536  0.12447250  0.72768897  1
  Zn  Zn395  1  0.52125491  0.02474657  0.74711748  1
  C  C396  1  0.88344830  0.12978886  0.71700092  1
  H  H397  1  0.91558345  0.16944889  0.71986211  1
  Zn  Zn398  1  0.54656086  0.36176964  0.87941071  1
  C  C399  1  0.79961045  0.32005646  0.95784955  1
  C  C400  1  0.69303495  0.35362926  0.94484067  1
  C  C401  1  0.85984422  0.49552437  0.94685555  1
  C  C402  1  0.64306254  0.36877546  0.89822668  1
  C  C403  1  0.63331289  0.39601074  0.83854413  1
  C  C404  1  0.72945281  0.44848835  0.78346041  1
  O  O405  1  0.87058017  0.32862729  0.86980599  1
  C  C406  1  0.86664884  0.31104501  0.92717324  1
  C  C407  1  0.66883872  0.41998389  0.78016383  1
  C  C408  1  0.75531300  0.35488424  0.92315661  1
  H  H409  1  0.76902959  0.37562894  0.87590350  1
  H  H410  1  0.75104730  0.46300429  0.82750185  1
  O  O411  1  0.52567477  0.42395711  0.97942444  1
  O  O412  1  0.91075494  0.29179480  0.95998326  1
  C  C413  1  0.92236537  0.49554758  0.91458075  1
  H  H414  1  0.93675549  0.07266453  0.78899069  1
  C  C415  1  0.85442383  0.02006918  0.75148028  1
  C  C416  1  0.97358308  0.49600462  0.88945633  1
  C  C417  1  0.89548055  0.07419562  0.75606676  1
  H  H418  1  0.71699060  0.58293520  0.12033712  1
  O  O419  1  0.62189981  0.64850409  0.21530107  1
  C  C420  1  0.84035395  0.57885411  0.24221689  1
  O  O421  1  0.86487551  0.68529721  0.15356347  1
  C  C422  1  0.81424753  0.66075656  0.15287904  1
  O  O423  1  0.81433739  0.84238417  0.18063505  1
  C  C424  1  0.87505870  0.94449132  0.04011793  1
  H  H425  1  0.78789466  0.92610943  0.09862953  1
  Zn  Zn426  1  0.57165635  0.56920258  0.16992044  1
  O  O427  1  0.82223870  0.84612255  0.02019374  1
  C  C428  1  0.78306538  0.83168556  0.23351815  1
  O  O429  1  0.62299463  0.61908855  0.05399754  1
  C  C430  1  0.79730921  0.60162630  0.19230735  1
  Zn  Zn431  1  0.80718688  0.78085212  0.10019014  1
  O  O432  1  0.77638904  0.68896622  0.11420599  1
  C  C433  1  0.82648143  0.95806969  0.08289382  1
  C  C434  1  0.57317375  0.64487100  0.04346707  1
  C  C435  1  0.74178352  0.56542537  0.16675466  1
  H  H436  1  0.58059123  0.75807234  0.18128051  1
  O  O437  1  0.73397553  0.85975154  0.24217938  1
  H  H438  1  0.83733900  0.60965055  0.00207382  1
  C  C439  1  0.92273913  0.98587670  0.02917777  1
  O  O440  1  0.52957325  0.63362702  0.08356086  1
  H  H441  1  0.98911126  0.52756690  0.21832011  1
  C  C442  1  0.72318508  0.50809272  0.20625706  1
  H  H443  1  0.88553611  0.59713129  0.24408196  1
  C  C444  1  0.56632216  0.76722360  0.23301731  1
  C  C445  1  0.87117323  0.87677426  0.00865118  1
  C  C446  1  0.51827934  0.87776974  0.20747330  1
  H  H447  1  0.88906455  0.76236979  0.23815066  1
  O  O448  1  0.72891146  0.99247855  0.17297161  1
  H  H449  1  0.96443421  0.97365421  0.00108943  1
  C  C450  1  0.61543700  0.66467664  0.27735913  1
  O  O451  1  0.97666891  0.78316366  0.47270202  1
  O  O452  1  0.62169385  0.92946643  0.31308054  1
  O  O453  1  0.69179121  0.74730714  0.44610920  1
  C  C454  1  0.52012546  0.79694751  0.44892637  1
  O  O455  1  0.76236361  0.68978701  0.49661670  1
  O  O456  1  0.64847813  0.90752823  0.41446136  1
  C  C457  1  0.74039181  0.71670127  0.44639931  1
  H  H458  1  0.84564051  0.65770778  0.42682991  1
  C  C459  1  0.86938489  0.70190068  0.32487321  1
  C  C460  1  0.81918527  0.51970735  0.28579150  1
  C  C461  1  0.56603525  0.97873430  0.41213611  1
  C  C462  1  0.77823734  0.72154747  0.38246657  1
  C  C463  1  0.58025308  0.72511124  0.28624455  1
  C  C464  1  0.92480801  0.65796929  0.32226439  1
  C  C465  1  0.75861298  0.76668523  0.33452193  1
  H  H466  1  0.71381358  0.79262286  0.34099520  1
  C  C467  1  0.85616081  0.74914938  0.27732934  1
  C  C468  1  0.83210696  0.68878117  0.38413940  1
  C  C469  1  0.80120453  0.78284503  0.28642796  1
  C  C470  1  0.53360139  0.78772649  0.37219764  1
  O  O471  1  0.63111355  0.62943940  0.32247810  1
  Zn  Zn472  1  0.71052102  0.96143339  0.26915118  1
  C  C473  1  0.61421224  0.93406292  0.37537312  1
  C  C474  1  0.96955406  0.62531339  0.31482782  1
  H  H475  1  0.57499979  0.69590403  0.39226194  1
  C  C476  1  0.56365619  0.73118119  0.35413416  1
  Zn  Zn477  1  0.74482461  0.58329545  0.27313916  1
  C  C478  1  0.53289129  0.82409656  0.25291600  1
  C  C479  1  0.51742594  0.82971016  0.32146241  1
  C  C480  1  0.56872769  0.97738245  0.48129638  1
  O  O481  1  0.53923103  0.75577072  0.49104656  1
  O  O482  1  0.91812217  0.71176082  0.52247606  1
  C  C483  1  0.65362246  0.62194858  0.67370913  1
  C  C484  1  0.73130343  0.85326856  0.67921585  1
  C  C485  1  0.64230667  0.59907520  0.73850831  1
  C  C486  1  0.68700972  0.90132346  0.70324456  1
  O  O487  1  0.77167494  0.81805095  0.57656380  1
  Zn  Zn488  1  0.82972975  0.73269578  0.56667084  1
  Zn  Zn489  1  0.62286749  0.74603570  0.53104164  1
  O  O490  1  0.61483694  0.64908867  0.56572871  1
  C  C491  1  0.60360135  0.62326355  0.62095230  1
  C  C492  1  0.76091363  0.63802301  0.70586549  1
  O  O493  1  0.55387109  0.59865788  0.63471820  1
  C  C494  1  0.96291372  0.74982128  0.52005321  1
  C  C495  1  0.78818212  0.84659374  0.71944838  1
  C  C496  1  0.72358697  0.82566066  0.60938208  1
  C  C497  1  0.71419838  0.64421455  0.65954625  1
  O  O498  1  0.86916260  0.63249734  0.72069413  1
  C  C499  1  0.99314595  0.76016822  0.58921304  1
  H  H500  1  0.71943182  0.66487902  0.60704096  1
  H  H501  1  0.64937953  0.91571623  0.67131773  1
  C  C502  1  0.82773761  0.66336600  0.69676902  1
  O  O503  1  0.67020371  0.81371163  0.59088765  1
  H  H504  1  0.83314644  0.83946542  0.69110676  1
  O  O505  1  0.83795910  0.71625311  0.66531189  1
  H  H506  1  0.94133585  0.69291796  0.64813754  1
  C  C507  1  0.97850755  0.72649024  0.64882409  1
  H  H508  1  0.77103700  0.97764399  0.71215626  1
  H  H509  1  0.60494373  0.94929876  0.50738079  1
  O  O510  1  0.56789527  0.98546432  0.62389119  1
  C  C511  1  0.94752668  0.69888818  0.81503482  1
  C  C512  1  0.51038627  0.70952111  0.95644027  1
  C  C513  1  0.62745041  0.95204477  0.80106157  1
  H  H514  1  0.56027533  0.80783051  0.82420338  1
  Zn  Zn515  1  0.93437986  0.90868271  0.85162238  1
  C  C516  1  0.78787317  0.72103678  0.88318815  1
  H  H517  1  0.84060325  0.74429537  0.78908485  1
  H  H518  1  0.81037677  0.55015335  0.86279216  1
  C  C519  1  0.79034823  0.87516084  0.78929989  1
  C  C520  1  0.74960041  0.61641174  0.77148724  1
  O  O521  1  0.62515357  0.97524186  0.85711965  1
  C  C522  1  0.67471526  0.76522902  0.85610669  1
  C  C523  1  0.56224312  0.77074486  0.86686002  1
  C  C524  1  0.87094192  0.96301131  0.79345284  1
  H  H525  1  0.74752427  0.66458759  0.97125018  1
  C  C526  1  0.73554954  0.75578186  0.85483750  1
  O  O527  1  0.91072169  0.85775166  0.97031907  1
  C  C528  1  0.89772390  0.65163387  0.92080115  1
  C  C529  1  0.89437229  0.69287336  0.86344620  1
  C  C530  1  0.84133414  0.72646976  0.84062902  1
  C  C531  1  0.69072255  0.59557321  0.78653834  1
  C  C532  1  0.67386177  0.56983646  0.85294729  1
  C  C533  1  0.80931257  0.52059270  0.91013852  1
  C  C534  1  0.61813429  0.74773361  0.89162652  1
  C  C535  1  0.56775466  0.68720376  0.97859284  1
  Zn  Zn536  1  0.60554464  0.54611015  0.92146766  1
  C  C537  1  0.84821538  0.90560657  0.81242835  1
  C  C538  1  0.84163676  0.64300619  0.95941934  1
  H  H539  1  0.78751463  0.62287165  0.80672228  1
  C  C540  1  0.73221723  0.90746867  0.82391910  1
  H  H541  1  0.94069084  0.63056929  0.93587614  1
  C  C542  1  0.78924646  0.67659858  0.94184835  1
  C  C543  1  0.62134012  0.70819561  0.95062401  1
  C  C544  1  0.75295912  0.51899550  0.94371867  1
  O  O545  1  0.57779000  0.94410832  0.76603830  1
  C  C546  1  0.68261680  0.91504448  0.77810219  1
  Zn  Zn547  1  0.70544383  0.82067956  0.77634989  1
  H  H548  1  0.73466891  0.93803461  0.86821276  1
  H  H549  1  0.66602498  0.69314430  0.97493736  1
  C  C550  1  0.69605738  0.54360729  0.91087041  1
  C  C551  1  0.98128038  0.70855944  0.76778199  1
  C  C552  1  0.50917502  0.75126295  0.90027591  1
  O  O553  1  0.51781820  0.52706759  0.96469279  1
  H  H554  1  0.59425748  0.58698830  0.75030419  1
  H  H555  1  0.97295656  0.51360612  0.99926170  1
