# generated using pymatgen
data_ZnH7C15O4
_symmetry_space_group_name_H-M   'P 1'
_cell_length_a   20.47602805
_cell_length_b   15.96480711
_cell_length_c   21.97026322
_cell_angle_alpha   90.00000000
_cell_angle_beta   90.00000000
_cell_angle_gamma   90.00000000
_symmetry_Int_Tables_number   1
_chemical_formula_structural   ZnH7C15O4
_chemical_formula_sum   'Zn18 H126 C270 O72'
_cell_volume   7181.98761178
_cell_formula_units_Z   18
loop_
 _symmetry_equiv_pos_site_id
 _symmetry_equiv_pos_as_xyz
  1  'x, y, z'
loop_
 _atom_site_type_symbol
 _atom_site_label
 _atom_site_symmetry_multiplicity
 _atom_site_fract_x
 _atom_site_fract_y
 _atom_site_fract_z
 _atom_site_occupancy
  C  C0  1  0.03151948  0.35962221  0.00888553  1
  Zn  Zn1  1  0.07646605  0.36577050  0.38568192  1
  H  H2  1  0.12312281  0.15784179  0.03924196  1
  O  O3  1  0.06855042  0.43978319  0.30658414  1
  C  C4  1  0.14648773  0.32074947  0.03275931  1
  C  C5  1  0.20196522  0.11114308  0.09860104  1
  C  C6  1  0.04511695  0.42998359  0.05393520  1
  C  C7  1  0.08096319  0.20267898  0.27312579  1
  H  H8  1  0.09244851  0.28345335  0.12717496  1
  C  C9  1  0.13629698  0.12994249  0.08195520  1
  H  H10  1  0.10203134  0.42259619  0.19538673  1
  C  C11  1  0.21154734  0.09107099  0.16374341  1
  C  C12  1  0.01682010  0.23271193  0.28562034  1
  C  C13  1  0.00162641  0.29861507  0.18136691  1
  C  C14  1  0.10388896  0.22845667  0.21442352  1
  C  C15  1  0.05652140  0.16461914  0.43405266  1
  H  H16  1  0.05648106  0.04071486  0.20534792  1
  C  C17  1  0.15702349  0.39347118  0.07571577  1
  H  H18  1  0.03458234  0.13059946  0.11068479  1
  C  C19  1  0.12262431  0.30447106  0.46069859  1
  C  C20  1  0.15791208  0.06307817  0.19961521  1
  H  H21  1  0.07474590  0.11862529  0.46739042  1
  C  C22  1  0.09527919  0.06780215  0.17477841  1
  H  H23  1  0.16823052  0.02815098  0.24253153  1
  C  C24  1  0.10558327  0.45344585  0.08062175  1
  H  H25  1  0.10881090  0.15497611  0.30439390  1
  H  H26  1  0.15425075  0.21027374  0.19911959  1
  C  C27  1  0.06627348  0.27320161  0.16946520  1
  C  C28  1  0.21730595  0.40029421  0.10692156  1
  C  C29  1  0.08319967  0.11225470  0.11926605  1
  C  C30  1  0.09805630  0.49091418  0.18689127  1
  C  C31  1  0.01374724  0.15156602  0.38471453  1
  C  C32  1  0.08076319  0.24523986  0.43301646  1
  H  H33  1  0.22267784  0.45099527  0.14105471  1
  C  C34  1  0.20201914  0.26903461  0.01829671  1
  Zn  Zn35  1  0.24554760  0.43455650  0.47101427  1
  O  O36  1  0.22643356  0.14440451  0.31856495  1
  O  O37  1  0.24865711  0.37113103  0.38294907  1
  O  O38  1  0.15975609  0.32961308  0.49902908  1
  C  C39  1  0.08773957  0.30529377  0.00082673  1
  C  C40  1  0.11849683  0.44004503  0.76830478  1
  Zn  Zn41  1  0.03750976  0.14846681  0.87697619  1
  C  C42  1  0.23734269  0.07090321  0.99147997  1
  C  C43  1  0.09786925  0.38458916  0.64762453  1
  C  C44  1  0.05070490  0.43589310  0.67812554  1
  H  H45  1  0.00110006  0.38240120  0.81977888  1
  O  O46  1  0.08576211  0.16051784  0.73933299  1
  H  H47  1  0.18565925  0.32467564  0.65144624  1
  C  C48  1  0.07524767  0.23848353  0.95370944  1
  C  C49  1  0.08914445  0.18836691  0.78917195  1
  C  C50  1  0.18531505  0.44169185  0.86317898  1
  C  C51  1  0.18744581  0.46270218  0.92747310  1
  H  H52  1  0.14406400  0.47991528  0.95273547  1
  C  C53  1  0.15360097  0.36560243  0.67856914  1
  C  C54  1  0.11309789  0.27448140  0.89726393  1
  C  C55  1  0.12461171  0.45519210  0.83264889  1
  H  H56  1  0.15037085  0.32530363  0.90724977  1
  C  C57  1  0.02659743  0.17067821  0.96861239  1
  H  H58  1  0.09167407  0.36524291  0.60088982  1
  C  C59  1  0.10960262  0.23968932  0.83947009  1
  C  C60  1  0.17006061  0.39290286  0.73716689  1
  C  C61  1  0.00461348  0.43822515  0.84877757  1
  C  C62  1  0.18625258  0.00713358  0.87560677  1
  C  C63  1  0.06327174  0.48226062  0.86225025  1
  C  C64  1  0.24329747  0.05545274  0.87917386  1
  C  C65  1  0.05875052  0.46301253  0.73774183  1
  H  H66  1  0.20169049  0.22481042  0.97925381  1
  C  C67  1  0.23309027  0.38805693  0.76579304  1
  H  H68  1  0.00311920  0.45258099  0.65310067  1
  C  C69  1  0.18259872  0.01806261  0.98998541  1
  H  H70  1  0.01912399  0.49828638  0.76139159  1
  H  H71  1  0.24860557  0.41668158  0.65762723  1
  C  C72  1  0.24351383  0.41615831  0.82776189  1
  C  C73  1  0.24879123  0.46525934  0.95233073  1
  C  C74  1  0.16279400  0.67822734  0.47131062  1
  C  C75  1  0.19909525  0.73383984  0.26237420  1
  C  C76  1  0.07115898  0.75396365  0.14881123  1
  O  O77  1  0.07967063  0.77342768  0.09285416  1
  H  H78  1  0.05455512  0.67237501  0.25937371  1
  C  C79  1  0.06939917  0.62964834  0.22106533  1
  C  C80  1  0.17825927  0.59265739  0.43897524  1
  C  C81  1  0.18504828  0.74928744  0.43929690  1
  C  C82  1  0.19292780  0.91643535  0.44481989  1
  O  O83  1  0.04659459  0.56720153  0.33789238  1
  H  H84  1  0.21287508  0.74081028  0.39688346  1
  C  C85  1  0.07885059  0.54454685  0.23324850  1
  C  C86  1  0.10103749  0.61054035  0.11512637  1
  H  H87  1  0.15814095  0.99457205  0.03423780  1
  Zn  Zn88  1  0.02988057  0.81957655  0.01283294  1
  O  O89  1  0.04875821  0.80101067  0.18653941  1
  O  O90  1  0.16922958  0.52449612  0.46736132  1
  C  C91  1  0.17696690  0.83151420  0.46748515  1
  C  C92  1  0.08388300  0.66096022  0.16384683  1
  O  O93  1  0.18400078  0.59644066  0.38320091  1
  C  C94  1  0.19110727  0.80778115  0.29797075  1
  C  C95  1  0.15508777  0.88414387  0.30707986  1
  H  H96  1  0.10894902  0.63934603  0.06985051  1
  H  H97  1  0.00304298  0.77792521  0.26566591  1
  H  H98  1  0.16156647  0.72561671  0.22583298  1
  O  O99  1  0.18142651  0.98708262  0.45654756  1
  O  O100  1  0.11191364  0.93116248  0.29769730  1
  C  C101  1  0.10555027  0.52522785  0.12693105  1
  H  H102  1  0.03434312  0.80478806  0.32481143  1
  H  H103  1  0.00152222  0.54295750  0.09635759  1
  O  O104  1  0.24164049  0.67770062  0.25204956  1
  O  O105  1  0.00540634  0.76249535  0.31010477  1
  C  C106  1  0.06422970  0.51814232  0.29808608  1
  C  C107  1  0.21328101  0.83465835  0.76309426  1
  H  H108  1  0.11323456  0.58771376  0.90585006  1
  H  H109  1  0.20083541  0.82184717  0.81138702  1
  C  C110  1  0.09835998  0.94292130  0.93181715  1
  C  C111  1  0.16063632  0.62885480  0.72532154  1
  C  C112  1  0.08721780  0.72046907  0.78146154  1
  C  C113  1  0.06974271  0.76308559  0.72591261  1
  O  O114  1  0.06994455  0.92825914  0.98536508  1
  H  H115  1  0.03296205  0.84667629  0.51300323  1
  H  H116  1  0.06294449  0.74588143  0.82285861  1
  C  C117  1  0.00961001  0.86639417  0.55540309  1
  O  O118  1  0.07465832  0.91293896  0.88705702  1
  C  C119  1  0.23926863  0.85966427  0.63176918  1
  H  H120  1  0.17807156  0.65556876  0.62987537  1
  H  H121  1  0.16302076  0.98375422  0.83316352  1
  H  H122  1  0.17195673  0.96189863  0.64308476  1
  C  C123  1  0.15096904  0.67282492  0.67071147  1
  H  H124  1  0.23689544  0.58964865  0.85384244  1
  C  C125  1  0.10361523  0.73741036  0.66869782  1
  C  C126  1  0.12375699  0.64631670  0.77861482  1
  C  C127  1  0.19572078  0.91051972  0.66427034  1
  C  C128  1  0.13940291  0.83514992  0.52207051  1
  C  C129  1  0.12169988  0.76402213  0.55266225  1
  C  C130  1  0.06636791  0.55462189  0.89912332  1
  H  H131  1  0.14505977  0.94245318  0.74655717  1
  H  H132  1  0.11609384  0.62829097  0.55353740  1
  C  C133  1  0.08481301  0.77728957  0.61186532  1
  H  H134  1  0.12839885  0.60769390  0.82105445  1
  H  H135  1  0.24183390  0.87061184  0.58399180  1
  H  H136  1  0.18882832  0.56928228  0.72415703  1
  C  C137  1  0.16054364  0.99284896  0.93351731  1
  C  C138  1  0.18258397  0.89854406  0.72808698  1
  C  C139  1  0.13458072  0.68361087  0.52700748  1
  H  H140  1  0.12801238  0.89577695  0.54168264  1
  C  C141  1  0.00858346  0.57666229  0.92579237  1
  O  O142  1  0.05944584  0.69636265  0.96676136  1
  C  C143  1  0.02992134  0.82955996  0.61161238  1
  C  C144  1  0.00968096  0.81426948  0.72612637  1
  C  C145  1  0.00693255  0.65469158  0.96845791  1
  O  O146  1  0.23400724  0.65472988  0.92382114  1
  C  C147  1  0.24957771  0.65608665  0.87094993  1
  O  O148  1  0.25641891  0.45208450  0.30157567  1
  H  H149  1  0.47967300  0.04701876  0.03056962  1
  H  H150  1  0.30172870  0.23073603  0.04700075  1
  C  C151  1  0.37558744  0.31004569  0.29709961  1
  C  C152  1  0.48283864  0.39035628  0.46775708  1
  Zn  Zn153  1  0.44326632  0.40424475  0.31079408  1
  C  C154  1  0.27771453  0.08020046  0.18752687  1
  C  C155  1  0.39381790  0.10248832  0.16577013  1
  C  C156  1  0.43894229  0.06911130  0.06372688  1
  C  C157  1  0.34739702  0.37424013  0.33760257  1
  C  C158  1  0.37601828  0.07800046  0.03852141  1
  C  C159  1  0.29131006  0.04759738  0.25011556  1
  H  H160  1  0.34607576  0.28760756  0.25856495  1
  C  C161  1  0.38569859  0.39107846  0.39196198  1
  H  H162  1  0.35266492  0.39807018  0.43276206  1
  H  H163  1  0.31114935  0.34609899  0.12271300  1
  H  H164  1  0.40603353  0.11063822  0.21508679  1
  C  C165  1  0.45978708  0.37597548  0.40157762  1
  C  C166  1  0.32074282  0.09629787  0.07672142  1
  C  C167  1  0.32908667  0.09357287  0.14306615  1
  C  C168  1  0.44763701  0.27242934  0.30455814  1
  C  C169  1  0.27741079  0.39721139  0.33586252  1
  C  C170  1  0.44557472  0.08956310  0.12615970  1
  C  C171  1  0.26638322  0.34045057  0.09791542  1
  H  H172  1  0.25894447  0.47324491  0.00176518  1
  C  C173  1  0.25698540  0.08460338  0.30330831  1
  H  H174  1  0.26076368  0.05529912  0.35225794  1
  C  C175  1  0.47125683  0.20382701  0.26948633  1
  C  C176  1  0.47434341  0.23528270  0.47549612  1
  C  C177  1  0.25509530  0.09651869  0.05370190  1
  H  H178  1  0.44730897  0.23547370  0.43421214  1
  H  H179  1  0.49504366  0.09779852  0.14543618  1
  C  C180  1  0.25784583  0.27495630  0.05397273  1
  C  C181  1  0.49241211  0.47157398  0.49335713  1
  O  O182  1  0.49710319  0.15121253  0.24311679  1
  C  C183  1  0.49530866  0.31460624  0.35987166  1
  H  H184  1  0.47320679  0.09997615  0.48967337  1
  H  H185  1  0.41633938  0.25906590  0.62083845  1
  C  C186  1  0.32913400  0.38024530  0.56951497  1
  H  H187  1  0.46194622  0.39413584  0.69858207  1
  O  O188  1  0.32583136  0.13313019  0.92748722  1
  C  C189  1  0.33580285  0.29138777  0.75870171  1
  C  C190  1  0.38322275  0.26537853  0.71565937  1
  C  C191  1  0.43509506  0.20179000  0.73593390  1
  C  C192  1  0.33683492  0.34729168  0.63444211  1
  O  O193  1  0.26449400  0.03071078  0.76987060  1
  C  C194  1  0.38150934  0.28608394  0.65428594  1
  O  O195  1  0.47902158  0.18997150  0.70072823  1
  Zn  Zn196  1  0.35449611  0.12781657  0.83210138  1
  O  O197  1  0.43635706  0.17570508  0.79077622  1
  H  H198  1  0.35199302  0.41522839  0.83213432  1
  H  H199  1  0.36970938  0.06172707  0.98942770  1
  O  O200  1  0.43885531  0.41032065  0.80662647  1
  H  H201  1  0.37381106  0.43869647  0.74856312  1
  O  O202  1  0.28196423  0.43296541  0.55885486  1
  C  C203  1  0.27192418  0.05971101  0.81901920  1
  C  C204  1  0.29106240  0.35084984  0.73449992  1
  C  C205  1  0.30588072  0.42128822  0.85906775  1
  H  H206  1  0.33982798  0.27069834  0.80586429  1
  C  C207  1  0.28759748  0.37543612  0.67252435  1
  H  H208  1  0.35898050  0.44651874  0.94055639  1
  C  C209  1  0.30852874  0.44547254  0.92100201  1
  O  O210  1  0.36453024  0.35656071  0.52924924  1
  H  H211  1  0.40724791  0.46946352  0.63941594  1
  C  C212  1  0.49911388  0.41261696  0.81659413  1
  C  C213  1  0.48971012  0.31430534  0.50189435  1
  C  C214  1  0.48802085  0.16287125  0.50770500  1
  C  C215  1  0.27588086  0.09062916  0.93467281  1
  H  H216  1  0.36137887  0.75443917  0.39028225  1
  C  C217  1  0.35063223  0.75062775  0.43978128  1
  C  C218  1  0.34404526  0.92297449  0.21158400  1
  C  C219  1  0.32944556  0.97411248  0.25906802  1
  C  C220  1  0.35302037  0.81746587  0.47854252  1
  Zn  Zn221  1  0.34833939  0.89159400  0.11628446  1
  C  C222  1  0.33389212  0.67321128  0.46652063  1
  C  C223  1  0.48095824  0.62238044  0.49188352  1
  C  C224  1  0.44928485  0.55220721  0.22133636  1
  O  O225  1  0.35035313  0.59283621  0.37240833  1
  C  C226  1  0.33983807  0.59184138  0.42891340  1
  O  O227  1  0.36479179  0.91050865  0.39159998  1
  O  O228  1  0.33348825  0.52424731  0.45579568  1
  H  H229  1  0.46720821  0.54935620  0.41026052  1
  O  O230  1  0.39989578  0.77893661  0.22361103  1
  C  C231  1  0.37348402  0.90582474  0.44789241  1
  C  C232  1  0.47934727  0.54787390  0.46030741  1
  C  C233  1  0.37329195  0.84180046  0.20816354  1
  H  H234  1  0.34419678  0.95873243  0.30655266  1
  C  C235  1  0.44082105  0.87779550  0.07985252  1
  C  C236  1  0.43074403  0.86950295  0.01629211  1
  C  C237  1  0.48945785  0.52524526  0.27442237  1
  C  C238  1  0.49940271  0.87127146  0.11400294  1
  O  O239  1  0.38808880  0.96280934  0.48012852  1
  H  H240  1  0.49748633  0.86769872  0.16404414  1
  H  H241  1  0.47224080  0.67882640  0.46901384  1
  Zn  Zn242  1  0.25026178  0.87295888  0.36568068  1
  Zn  Zn243  1  0.26250206  0.58588700  0.31592648  1
  O  O244  1  0.40116236  0.55626791  0.19165592  1
  C  C245  1  0.26703893  0.78952837  0.66478184  1
  C  C246  1  0.37112037  0.59566044  0.63871994  1
  C  C247  1  0.30831716  0.73377644  0.63310273  1
  C  C248  1  0.30603818  0.78977538  0.86618746  1
  C  C249  1  0.33231611  0.66064364  0.66468195  1
  H  H250  1  0.30734840  0.60380421  0.54583550  1
  C  C251  1  0.34908547  0.84738499  0.83813564  1
  Zn  Zn252  1  0.38413261  0.87953509  0.75300277  1
  C  C253  1  0.32023803  0.64298759  0.72963238  1
  C  C254  1  0.39773515  0.90785855  0.85211250  1
  O  O255  1  0.37069636  0.87311908  0.98570199  1
  C  C256  1  0.31853433  0.73728347  0.56563172  1
  C  C257  1  0.49138290  0.83351750  0.62183319  1
  H  H258  1  0.34017124  0.86820001  0.56728064  1
  C  C259  1  0.28445176  0.71907365  0.83204684  1
  H  H260  1  0.32596454  0.55974601  0.80822510  1
  O  O261  1  0.43495608  0.94924131  0.88248679  1
  C  C262  1  0.33851231  0.56922376  0.75970325  1
  C  C263  1  0.31743487  0.66591438  0.52615855  1
  H  H264  1  0.42657238  0.93437571  0.58316944  1
  C  C265  1  0.28912873  0.71001447  0.76359944  1
  C  C266  1  0.33784541  0.81444672  0.53906003  1
  H  H267  1  0.29244476  0.79669490  0.91447406  1
  H  H268  1  0.39160881  0.60853431  0.59352994  1
  C  C269  1  0.43747128  0.89111234  0.62282136  1
  O  O270  1  0.39413945  0.90112572  0.65921705  1
  H  H271  1  0.38936890  0.90126518  0.94631484  1
  C  C272  1  0.36696025  0.50248224  0.72722823  1
  O  O273  1  0.48469081  0.77708583  0.72521430  1
  C  C274  1  0.38334950  0.51747436  0.66527000  1
  C  C275  1  0.48910719  0.86240494  0.98404197  1
  H  H276  1  0.48682990  0.86092074  0.93369141  1
  C  C277  1  0.25365605  0.77703960  0.73140818  1
  C  C278  1  0.49492407  0.63069519  0.55550947  1
  H  H279  1  0.49474616  0.69263916  0.57545794  1
  O  O280  1  0.56683406  0.32471736  0.33748249  1
  H  H281  1  0.56415943  0.27262510  0.31548035  1
  H  H282  1  0.59561638  0.41225754  0.45533115  1
  H  H283  1  0.68524532  0.15567803  0.47188258  1
  C  C284  1  0.68167442  0.47951716  0.49472123  1
  H  H285  1  0.52022893  0.26004264  0.38806768  1
  O  O286  1  0.62499366  0.03299760  0.41555723  1
  C  C287  1  0.63742188  0.40867375  0.48592047  1
  C  C288  1  0.61412250  0.00493609  0.46846137  1
  H  H289  1  0.71720086  0.36902734  0.01362299  1
  H  H290  1  0.62200232  0.27403051  0.49981195  1
  C  C291  1  0.65160013  0.32950006  0.51032537  1
  C  C292  1  0.51226207  0.48084768  0.55991579  1
  O  O293  1  0.67390901  0.24716514  0.87492133  1
  H  H294  1  0.68183390  0.17629275  0.67229087  1
  C  C295  1  0.52350692  0.17081665  0.56402841  1
  H  H296  1  0.56921823  0.24073519  0.63219253  1
  C  C297  1  0.72030236  0.24123727  0.90676164  1
  C  C298  1  0.59035269  0.05877821  0.93626703  1
  H  H299  1  0.62912782  0.42777812  0.81935976  1
  C  C300  1  0.55118687  0.11635634  0.91370481  1
  C  C301  1  0.53211557  0.40461566  0.58846104  1
  C  C302  1  0.64343318  0.00146460  0.91660736  1
  C  C303  1  0.66955568  0.14062398  0.63407944  1
  C  C304  1  0.63895341  0.06051364  0.63759421  1
  C  C305  1  0.72423387  0.43881572  0.72856585  1
  O  O306  1  0.64961872  0.05860252  0.74911207  1
  C  C307  1  0.62711401  0.42419814  0.66254134  1
  C  C308  1  0.54285609  0.24737242  0.58830689  1
  C  C309  1  0.55889952  0.41128100  0.65260171  1
  C  C310  1  0.51450676  0.40185806  0.70074316  1
  C  C311  1  0.65046688  0.43403611  0.72115246  1
  H  H312  1  0.65959609  0.42126306  0.62470341  1
  Zn  Zn313  1  0.60708376  0.08553457  0.84137212  1
  H  H314  1  0.51239384  0.15178933  0.93686063  1
  C  C315  1  0.62179224  0.02718330  0.70435238  1
  C  C316  1  0.71273853  0.31909900  0.54418185  1
  H  H317  1  0.53565210  0.11384728  0.59165709  1
  C  C318  1  0.54282315  0.41361983  0.76018846  1
  C  C319  1  0.60692128  0.42929389  0.77148960  1
  C  C320  1  0.67388669  0.12883537  0.51681595  1
  C  C321  1  0.68803579  0.17045836  0.57363634  1
  O  O322  1  0.51985373  0.41962952  0.86815968  1
  C  C323  1  0.52228781  0.32472482  0.56226608  1
  C  C324  1  0.63611513  0.05444535  0.52482358  1
  O  O325  1  0.74410362  0.45195808  0.78213039  1
  C  C326  1  0.73404077  0.24402558  0.57396318  1
  C  C327  1  0.73646201  0.47122066  0.52917821  1
  C  C328  1  0.62218010  0.02313267  0.58279328  1
  H  H329  1  0.59008638  0.69784402  0.43266005  1
  C  C330  1  0.52024218  0.81973114  0.33619600  1
  H  H331  1  0.67482958  0.64688207  0.35676145  1
  C  C332  1  0.55755970  0.86599363  0.07909677  1
  C  C333  1  0.68821172  0.65971283  0.40386380  1
  C  C334  1  0.64335394  0.69209724  0.44472588  1
  H  H335  1  0.53958900  0.97973527  0.21313364  1
  C  C336  1  0.54884383  0.55670063  0.30562968  1
  O  O337  1  0.58810528  0.56535178  0.34322270  1
  H  H338  1  0.60854487  0.86673914  0.09779531  1
  Zn  Zn339  1  0.57823088  0.94017256  0.34651280  1
  C  C340  1  0.52260084  0.87503992  0.27937038  1
  H  H341  1  0.66848133  0.54212296  0.47593729  1
  C  C342  1  0.54501459  0.94853420  0.25876110  1
  O  O343  1  0.57972867  0.94201340  0.47186544  1
  O  O344  1  0.69638534  0.84397405  0.10995562  1
  O  O345  1  0.51306916  0.75893412  0.36480293  1
  Zn  Zn346  1  0.52406915  0.64241301  0.22865411  1
  C  C347  1  0.54948608  0.86269522  0.01450043  1
  H  H348  1  0.59556944  0.96741660  0.59024971  1
  C  C349  1  0.74017943  0.70958603  0.52184182  1
  H  H350  1  0.52003796  0.56273597  0.63933179  1
  C  C351  1  0.62122199  0.74166313  0.54746871  1
  C  C352  1  0.52844953  0.82849216  0.56782927  1
  O  O353  1  0.58619851  0.96698280  0.71008608  1
  C  C354  1  0.66848990  0.71500784  0.50416236  1
  H  H355  1  0.52329358  0.85867188  0.52220383  1
  O  O356  1  0.55856954  0.73941012  0.65508104  1
  C  C357  1  0.57392378  0.76997139  0.58554735  1
  Zn  Zn358  1  0.72721717  0.80256885  0.65918338  1
  O  O359  1  0.71209732  0.76841539  0.79027936  1
  C  C360  1  0.50846156  0.78224827  0.67458853  1
  H  H361  1  0.59205196  0.85446995  0.98485056  1
  C  C362  1  0.51131110  0.55864054  0.59086379  1
  O  O363  1  0.67156078  0.93864753  0.92048050  1
  C  C364  1  0.85422412  0.36756819  0.17253450  1
  C  C365  1  0.89230238  0.46789039  0.25674317  1
  H  H366  1  0.92314858  0.19966450  0.45446871  1
  H  H367  1  0.88399996  0.47814893  0.48793820  1
  C  C368  1  0.82623487  0.43861784  0.14333420  1
  C  C369  1  0.91967589  0.40066844  0.00361781  1
  H  H370  1  0.93696646  0.05549212  0.35676441  1
  H  H371  1  0.81567697  0.25563580  0.47917645  1
  C  C372  1  0.89815557  0.23843190  0.42071418  1
  C  C373  1  0.88616245  0.30340803  0.31872330  1
  C  C374  1  0.82522496  0.34437285  0.33725340  1
  H  H375  1  0.97216120  0.33294542  0.14715206  1
  C  C376  1  0.80373463  0.32559118  0.39403813  1
  C  C377  1  0.91589491  0.31395268  0.26004950  1
  C  C378  1  0.92343301  0.25098026  0.36093028  1
  H  H379  1  0.85397238  0.30733712  0.15089404  1
  C  C380  1  0.98557793  0.21619148  0.34279091  1
  C  C381  1  0.88490865  0.38784216  0.22804763  1
  O  O382  1  0.79319940  0.33605712  0.05743291  1
  C  C383  1  0.83588263  0.27009482  0.43552781  1
  C  C384  1  0.99214328  0.48602279  0.07001180  1
  H  H385  1  0.79617578  0.38465119  0.30475829  1
  C  C386  1  0.97464747  0.27659563  0.23943780  1
  C  C387  1  0.79210344  0.42790304  0.08573592  1
  C  C388  1  0.93060232  0.46748464  0.04561984  1
  H  H389  1  0.75755602  0.35707963  0.41119052  1
  C  C390  1  0.98148318  0.06846249  0.38748692  1
  C  C391  1  0.75831873  0.31835931  0.00819021  1
  H  H392  1  0.92183258  0.47668618  0.30104368  1
  O  O393  1  0.98310199  0.00773584  0.41871733  1
  H  H394  1  0.88471156  0.49681687  0.06331685  1
  O  O395  1  0.76790812  0.48316113  0.05999235  1
  O  O396  1  0.98832874  0.14373572  0.00322134  1
  C  C397  1  0.95080928  0.46787390  0.87843448  1
  Zn  Zn398  1  0.80327554  0.15342092  0.91848105  1
  O  O399  1  0.92934519  0.07771239  0.83748639  1
  C  C400  1  0.88114269  0.15615478  0.65568287  1
  O  O401  1  0.88491092  0.35148001  0.84532857  1
  C  C402  1  0.84536397  0.30945412  0.60015626  1
  O  O403  1  0.75806023  0.44044410  0.68370387  1
  C  C404  1  0.79785724  0.23757202  0.59883362  1
  O  O405  1  0.83277223  0.45966439  0.87710366  1
  H  H406  1  0.93204220  0.36064652  0.64155824  1
  H  H407  1  0.95704843  0.29040210  0.95314880  1
  O  O408  1  0.85094103  0.03794753  0.89857164  1
  C  C409  1  0.92166817  0.22745428  0.65854519  1
  C  C410  1  0.90297273  0.30352110  0.63382432  1
  H  H411  1  0.89291807  0.09263249  0.67074413  1
  C  C412  1  0.75918022  0.25981773  0.96068209  1
  C  C413  1  0.82155263  0.38521831  0.57357083  1
  C  C414  1  0.87588279  0.49137558  0.64098923  1
  C  C415  1  0.82062110  0.16015453  0.62587295  1
  H  H416  1  0.79056033  0.10344835  0.62378370  1
  C  C417  1  0.88503299  0.42100532  0.86458615  1
  C  C418  1  0.89425067  0.02477303  0.85935900  1
  C  C419  1  0.86422359  0.46234621  0.58047493  1
  H  H420  1  0.96859133  0.22487145  0.68769149  1
  H  H421  1  0.84986384  0.46279687  0.68178862  1
  H  H422  1  0.86922719  0.38260930  0.98777810  1
  C  C423  1  0.96810279  0.34440073  0.98486367  1
  C  C424  1  0.75711683  0.39080554  0.54903792  1
  C  C425  1  0.86076160  0.62104511  0.24823436  1
  Zn  Zn426  1  0.80620634  0.82258546  0.00275261  1
  C  C427  1  0.88115831  0.88048647  0.06142875  1
  C  C428  1  0.75741917  0.65466959  0.41996682  1
  O  O429  1  0.87503910  0.63490064  0.30470421  1
  C  C430  1  0.81904247  0.87600495  0.09436042  1
  O  O431  1  0.93776039  0.57936015  0.43328735  1
  C  C432  1  0.95276876  0.61952943  0.48141841  1
  Zn  Zn433  1  0.96047308  0.64640418  0.35255955  1
  O  O434  1  0.84217938  0.67402026  0.21354324  1
  C  C435  1  0.83383839  0.52098550  0.16940312  1
  H  H436  1  0.79412135  0.63395081  0.38711797  1
  C  C437  1  0.86396294  0.53159538  0.22449475  1
  O  O438  1  0.93868937  0.89908432  0.05664385  1
  H  H439  1  0.80782825  0.57227198  0.14578796  1
  C  C440  1  0.75213920  0.85208220  0.09244078  1
  H  H441  1  0.83699384  0.67821593  0.48517663  1
  C  C442  1  0.78313271  0.67856404  0.47720154  1
  O  O443  1  0.97910158  0.68841266  0.47733570  1
  C  C444  1  0.96091571  0.91568927  0.79770603  1
  H  H445  1  0.94042997  0.69847915  0.80392980  1
  C  C446  1  0.87118946  0.87602612  0.86721643  1
  H  H447  1  0.79849219  0.64678583  0.72293452  1
  C  C448  1  0.96556293  0.82817213  0.77959473  1
  H  H449  1  0.89795770  0.75927363  0.68103749  1
  O  O450  1  0.79981256  0.75409230  0.92014501  1
  C  C451  1  0.93277428  0.76635061  0.81387819  1
  H  H452  1  0.99146022  0.96458798  0.77775095  1
  C  C453  1  0.84076895  0.72890905  0.88066507  1
  H  H454  1  0.90513831  0.55695684  0.94034658  1
  C  C455  1  0.93054809  0.89996229  0.66013351  1
  O  O456  1  0.85107759  0.65468223  0.87008896  1
  H  H457  1  0.96818186  0.66270419  0.60746947  1
  C  C458  1  0.75319522  0.74914355  0.75642539  1
  C  C459  1  0.76398848  0.74415850  0.57759748  1
  C  C460  1  0.88230643  0.79170538  0.85163470  1
  H  H461  1  0.83155309  0.89734953  0.90003113  1
  C  C462  1  0.95836643  0.92511542  0.55270960  1
  O  O463  1  0.95953776  0.65188337  0.72235091  1
  C  C464  1  0.94947502  0.53775944  0.91512036  1
  C  C465  1  0.92708172  0.58971902  0.71373026  1
  C  C466  1  0.98882386  0.84870653  0.66879971  1
  C  C467  1  0.90968778  0.93437864  0.83865887  1
  C  C468  1  0.80310788  0.80173756  0.72167672  1
  C  C469  1  0.94215989  0.60563902  0.59933009  1
  O  O470  1  0.89604093  0.55153581  0.75494431  1
  C  C471  1  0.91537829  0.56087560  0.64867790  1
  H  H472  1  0.90006542  0.91430409  0.70073061  1
  Zn  Zn473  1  0.81089687  0.55736778  0.81057346  1
  C  C474  1  0.84403605  0.76710820  0.67199829  1
  C  C475  1  0.93102006  0.57537533  0.54166311  1
  C  C476  1  0.81775486  0.74353393  0.61403829  1
  O  O477  1  0.80046502  0.95433054  0.70674580  1
  C  C478  1  0.78334752  0.88664864  0.71557257  1
  C  C479  1  0.91819385  0.94195180  0.60464706  1
  H  H480  1  0.76635662  0.52853673  0.53753924  1
  O  O481  1  0.76391886  0.64073838  0.75251567  1
  H  H482  1  0.87711832  0.98295978  0.59329748  1
  H  H483  1  0.93980441  0.94824184  0.50999888  1
  C  C484  1  0.89378109  0.50446686  0.53235872  1
  O  O485  1  0.96072895  0.69097504  0.99231792  1
