# generated using pymatgen
data_Zn2H32C43(NO6)2
_symmetry_space_group_name_H-M   'P 1'
_cell_length_a   11.03095577
_cell_length_b   12.04024368
_cell_length_c   30.20720397
_cell_angle_alpha   90.00000000
_cell_angle_beta   90.00000000
_cell_angle_gamma   90.00000000
_symmetry_Int_Tables_number   1
_chemical_formula_structural   Zn2H32C43(NO6)2
_chemical_formula_sum   'Zn8 H128 C172 N8 O48'
_cell_volume   4011.98173907
_cell_formula_units_Z   4
loop_
 _symmetry_equiv_pos_site_id
 _symmetry_equiv_pos_as_xyz
  1  'x, y, z'
loop_
 _atom_site_type_symbol
 _atom_site_label
 _atom_site_symmetry_multiplicity
 _atom_site_fract_x
 _atom_site_fract_y
 _atom_site_fract_z
 _atom_site_occupancy
  H  H0  1  0.17514063  0.18323577  0.06865486  1
  H  H1  1  0.43621766  0.23864548  0.20883339  1
  N  N2  1  0.18237568  0.44416608  0.03593877  1
  O  O3  1  0.13416859  0.42299298  0.15583450  1
  O  O4  1  0.32787039  0.10366381  0.16895276  1
  C  C5  1  0.16007968  0.24578537  0.04284191  1
  C  C6  1  0.15298454  0.20454410  0.14238556  1
  H  H7  1  0.20243534  0.28649617  0.13927926  1
  C  C8  1  0.21296404  0.11051804  0.16141930  1
  C  C9  1  0.06962036  0.23041055  0.00889137  1
  C  C10  1  0.23557842  0.34385202  0.03712887  1
  C  C11  1  0.41967155  0.23946924  0.24400095  1
  H  H12  1  0.33124303  0.36085100  0.02703507  1
  H  H13  1  0.35614879  0.00328166  0.22421328  1
  C  C14  1  0.03420255  0.20021098  0.13012959  1
  C  C15  1  0.13763949  0.01469854  0.16583594  1
  O  O16  1  0.44166683  0.17536993  0.00981154  1
  H  H17  1  0.27222476  0.35705282  0.24310123  1
  O  O18  1  0.49492086  0.42135733  0.10035084  1
  C  C19  1  0.04620506  0.48223040  0.14477815  1
  H  H20  1  0.48237023  0.00093566  0.10884221  1
  C  C21  1  0.02173493  0.00787363  0.14955741  1
  O  O22  1  0.16274435  0.43705907  0.31792127  1
  Zn  Zn23  1  0.19477304  0.46858692  0.42578356  1
  C  C24  1  0.32477917  0.31038762  0.30906771  1
  O  O25  1  0.31579603  0.41082713  0.47730652  1
  O  O26  1  0.15629373  0.06854303  0.29952916  1
  H  H27  1  0.02966976  0.19575692  0.29866651  1
  C  C28  1  0.33333301  0.30887624  0.26266840  1
  O  O29  1  0.23584893  0.35942556  0.37776046  1
  C  C30  1  0.02221074  0.10804297  0.30761419  1
  H  H31  1  0.38873373  0.23295640  0.36922148  1
  O  O32  1  0.24130673  0.24517735  0.48779001  1
  C  C33  1  0.23464067  0.37656173  0.33566021  1
  C  C34  1  0.39806208  0.23780885  0.33234772  1
  C  C35  1  0.47695573  0.17031406  0.30950919  1
  H  H36  1  0.10542069  0.00931679  0.42689112  1
  O  O37  1  0.00881276  0.48822853  0.44398246  1
  O  O38  1  0.16743386  0.45271598  0.69262884  1
  C  C39  1  0.33779552  0.17966580  0.61010604  1
  C  C40  1  0.29787711  0.46303184  0.57017067  1
  C  C41  1  0.19541825  0.41867130  0.64191570  1
  H  H42  1  0.11369162  0.30206038  0.70174096  1
  H  H43  1  0.36000317  0.15613973  0.53703482  1
  C  C44  1  0.29653241  0.12316613  0.64773755  1
  C  C45  1  0.26810675  0.33804510  0.50121842  1
  C  C46  1  0.13585699  0.33211463  0.62054352  1
  H  H47  1  0.40052773  0.25167036  0.61217513  1
  N  N48  1  0.26719406  0.02959525  0.56104295  1
  C  C49  1  0.33146015  0.16266353  0.69530675  1
  C  C50  1  0.24033742  0.37274370  0.54946232  1
  C  C51  1  0.40560999  0.25678916  0.70103979  1
  C  C52  1  0.16095754  0.31257869  0.57534478  1
  H  H53  1  0.06179656  0.28664635  0.63769638  1
  C  C54  1  0.32207375  0.12562898  0.56907557  1
  C  C55  1  0.12221427  0.38605970  0.71790726  1
  H  H56  1  0.12527791  0.23928572  0.55719243  1
  C  C57  1  0.29278765  0.09221449  0.73027230  1
  C  C58  1  0.27236991  0.48073704  0.61564049  1
  H  H59  1  0.41860255  0.30906845  0.67234632  1
  C  C60  1  0.22436995  0.02895918  0.64118767  1
  C  C61  1  0.45266503  0.27319809  0.74253262  1
  H  H62  1  0.23128092  0.02229457  0.72489843  1
  N  N63  1  0.42610168  0.19937903  0.77386494  1
  C  C64  1  0.23702534  0.23711937  0.90237370  1
  C  C65  1  0.09398414  0.40096485  0.76400262  1
  C  C66  1  0.06377631  0.03217750  0.78223961  1
  C  C67  1  0.30481322  0.20978770  0.93920333  1
  O  O68  1  0.18065234  0.32038843  0.83437587  1
  H  H69  1  0.47597840  0.21292620  0.80264820  1
  C  C70  1  0.26374501  0.31298039  0.86804116  1
  H  H71  1  0.32713921  0.06189636  0.79828528  1
  C  C72  1  0.20607939  0.36834075  0.79046963  1
  H  H73  1  0.26875508  0.14799271  0.96304038  1
  C  C74  1  0.41865621  0.26517573  0.94306892  1
  C  C75  1  0.37289757  0.36515372  0.87581380  1
  H  H76  1  0.27132106  0.43482040  0.79168442  1
  C  C77  1  0.34981250  0.11383135  0.76991629  1
  H  H78  1  0.15091596  0.19360002  0.89463319  1
  C  C79  1  0.48444039  0.23481852  0.98334386  1
  C  C80  1  0.04723228  0.28783820  0.96899430  1
  H  H81  1  0.25468619  0.29341861  0.77625249  1
  C  C82  1  0.44818111  0.34804947  0.91234497  1
  H  H83  1  0.39269691  0.43752380  0.85296860  1
  C  C84  1  0.04079245  0.08108668  0.82328962  1
  H  H85  1  0.11350866  0.35184746  0.95644981  1
  H  H86  1  0.12254538  0.08385526  0.76192394  1
  H  H87  1  0.07856244  0.16331162  0.83325300  1
  H  H88  1  0.34540180  0.00960085  0.96069560  1
  H  H89  1  0.33848228  0.91611847  0.17785972  1
  H  H90  1  0.13815569  0.63599586  0.12305850  1
  H  H91  1  0.18411396  0.93398118  0.17543562  1
  Zn  Zn92  1  0.24125739  0.59255033  0.00700190  1
  H  H93  1  0.35549487  0.65623618  0.14047402  1
  C  C94  1  0.11760617  0.79726269  0.08962558  1
  C  C95  1  0.30964020  0.89800733  0.08585025  1
  O  O96  1  0.49885335  0.80424623  0.21814341  1
  C  C97  1  0.18815679  0.89918215  0.07644539  1
  H  H98  1  0.40871756  0.81875352  0.01175839  1
  C  C99  1  0.18799006  0.70867334  0.10938263  1
  C  C100  1  0.30759796  0.72620038  0.12344437  1
  H  H101  1  0.12124703  0.79836641  0.23212475  1
  H  H102  1  0.18786049  0.61438273  0.19997682  1
  C  C103  1  0.37233667  0.82107594  0.11189161  1
  C  C104  1  0.09337969  0.64405360  0.19907393  1
  C  C105  1  0.00831581  0.57868592  0.17450650  1
  C  C106  1  0.05507404  0.74389744  0.21515496  1
  H  H107  1  0.15370590  0.96644691  0.05505850  1
  N  N108  1  0.04558583  0.60250662  0.00099820  1
  O  O109  1  0.47155197  0.54634792  0.15326012  1
  O  O110  1  0.49169099  0.83266307  0.12470742  1
  H  H111  1  0.36678209  0.96853546  0.07178528  1
  H  H112  1  0.04150515  0.96723914  0.23839209  1
  H  H113  1  0.38075874  0.62696938  0.24156470  1
  C  C114  1  0.38201364  0.99476151  0.18847520  1
  O  O115  1  0.22093254  0.64928226  0.42553959  1
  C  C116  1  0.26405520  0.80477888  0.38039487  1
  N  N117  1  0.09367677  0.92302922  0.48034386  1
  H  H118  1  0.00827199  0.95701196  0.35931059  1
  H  H119  1  0.36833823  0.98207088  0.30484339  1
  C  C120  1  0.30429679  0.70992311  0.40964647  1
  C  C121  1  0.30547175  0.94340384  0.32803868  1
  H  H122  1  0.44364334  0.82329968  0.35128190  1
  O  O123  1  0.40968529  0.67221699  0.41055455  1
  C  C124  1  0.10219687  0.92501559  0.35355160  1
  C  C125  1  0.34986836  0.85896873  0.35428483  1
  H  H126  1  0.37274633  0.64910669  0.48692207  1
  H  H127  1  0.42402804  0.95104322  0.41829120  1
  C  C128  1  0.14104087  0.83769555  0.37951163  1
  C  C129  1  0.18477674  0.98314238  0.32589450  1
  H  H130  1  0.07491497  0.79518755  0.40150779  1
  N  N131  1  0.44685328  0.93345161  0.48060935  1
  C  C132  1  0.03998483  0.96410091  0.44447480  1
  C  C133  1  0.46004898  0.64134669  0.26120162  1
  C  C134  1  0.49931058  0.92739376  0.44116539  1
  Zn  Zn135  1  0.26695746  0.96226249  0.49391069  1
  H  H136  1  0.00136648  0.89737651  0.28905954  1
  C  C137  1  0.48305836  0.57112394  0.29712245  1
  H  H138  1  0.42893807  0.50099466  0.30503248  1
  H  H139  1  0.14950431  0.82008225  0.66088656  1
  H  H140  1  0.17117275  0.67716585  0.52350830  1
  H  H141  1  0.17207284  0.98768549  0.66823313  1
  C  C142  1  0.25164182  0.69617271  0.54367298  1
  H  H143  1  0.34034549  0.76926451  0.64735615  1
  C  C144  1  0.12055762  0.72975190  0.65543178  1
  C  C145  1  0.23146452  0.72406189  0.58816310  1
  O  O146  1  0.03326900  0.89479350  0.72545768  1
  C  C147  1  0.36177484  0.68503545  0.52126822  1
  O  O148  1  0.40806986  0.63076863  0.72657398  1
  C  C149  1  0.33839716  0.75224757  0.61236111  1
  O  O150  1  0.12121201  0.71909724  0.60730088  1
  H  H151  1  0.18518522  0.67149520  0.67213997  1
  C  C152  1  0.22792688  0.98302355  0.59752808  1
  H  H153  1  0.17811285  0.91177848  0.58347437  1
  H  H154  1  0.47902331  0.60384614  0.65169227  1
  C  C155  1  0.46577141  0.71189772  0.54704402  1
  C  C156  1  0.44768396  0.74988780  0.59210055  1
  H  H157  1  0.46443726  0.93511904  0.54733719  1
  H  H158  1  0.08002787  0.83731510  0.54060105  1
  C  C159  1  0.02949942  0.87009693  0.51080076  1
  H  H160  1  0.35653488  0.51460998  0.55183418  1
  C  C161  1  0.47832458  0.55970050  0.74064143  1
  H  H162  1  0.31420576  0.55198586  0.63072447  1
  H  H163  1  0.02418686  0.73410573  0.74469518  1
  H  H164  1  0.01012772  0.52885245  0.64652277  1
  C  C165  1  0.17972181  0.91348970  0.94979797  1
  H  H166  1  0.06524457  0.52316258  0.81625849  1
  H  H167  1  0.11512572  0.58141325  0.76224838  1
  C  C168  1  0.29302852  0.93124182  0.96692324  1
  C  C169  1  0.00724298  0.76347360  0.95220158  1
  O  O170  1  0.45854070  0.72376495  0.85987075  1
  H  H171  1  0.36466758  0.63185799  0.92392999  1
  C  C172  1  0.13037331  0.80331074  0.95817382  1
  N  N173  1  0.42435145  0.57411562  0.97896092  1
  C  C174  1  0.44901953  0.60245786  0.93878709  1
  H  H175  1  0.12693090  0.97936435  0.93241807  1
  C  C176  1  0.23350120  0.75373323  0.97983678  1
  C  C177  1  0.06938810  0.51290267  0.78036691  1
  C  C178  1  0.32757347  0.82922811  0.98946441  1
  C  C179  1  0.01129798  0.93462501  0.76630850  1
  H  H180  1  0.49056669  0.90703251  0.85788995  1
  O  O181  1  0.47561729  0.51722496  0.77778206  1
  C  C182  1  0.61706782  0.40956020  0.16894618  1
  H  H183  1  0.76672189  0.40906326  0.07736772  1
  C  C184  1  0.58041405  0.08755166  0.19063029  1
  H  H185  1  0.99690319  0.28538023  0.11781387  1
  O  O186  1  0.80421270  0.18946136  0.08804254  1
  C  C187  1  0.84193141  0.11010360  0.10933812  1
  H  H188  1  0.54508101  0.16991796  0.17935813  1
  C  C189  1  0.67860908  0.31611679  0.15207856  1
  C  C190  1  0.79234733  0.30741681  0.22310486  1
  C  C191  1  0.76551190  0.27256474  0.17968522  1
  N  N192  1  0.93969642  0.04764101  0.00393633  1
  H  H193  1  0.65291007  0.28087059  0.11862339  1
  H  H194  1  0.85074728  0.10013380  0.21434300  1
  O  O195  1  0.78167482  0.02517238  0.11761187  1
  H  H196  1  0.81156205  0.19821532  0.16597368  1
  C  C197  1  0.72910011  0.40715386  0.23406188  1
  C  C198  1  0.64292251  0.46135838  0.20980437  1
  H  H199  1  0.59258427  0.28710053  0.05483798  1
  H  H200  1  0.67988602  0.07617277  0.18293976  1
  C  C201  1  0.73281912  0.42756486  0.04262918  1
  O  O202  1  0.97319676  0.45447491  0.11290064  1
  C  C203  1  0.62723204  0.34305659  0.02672800  1
  C  C204  1  0.90674584  0.13792716  0.24012210  1
  C  C205  1  0.52008979  0.46103745  0.13689504  1
  C  C206  1  0.96038855  0.15668220  0.01517329  1
  C  C207  1  0.97043490  0.10068189  0.12927841  1
  O  O208  1  0.81571486  0.46754610  0.01968018  1
  H  H209  1  0.99559568  0.16170064  0.22440371  1
  Zn  Zn210  1  0.99716833  0.47732936  0.04572873  1
  O  O211  1  0.58957857  0.11057832  0.24141174  1
  H  H212  1  0.74105626  0.11736407  0.29288874  1
  H  H213  1  0.53552329  0.11870647  0.33121958  1
  C  C214  1  0.90133247  0.33194426  0.38864263  1
  C  C215  1  0.92624049  0.06020613  0.27782396  1
  O  O216  1  0.54574877  0.45513284  0.37578596  1
  C  C217  1  0.85969320  0.24812735  0.36178390  1
  H  H218  1  0.74009982  0.08026484  0.43771126  1
  C  C219  1  0.63342903  0.46256057  0.46701654  1
  H  H220  1  0.86900438  0.26376521  0.32627401  1
  H  H221  1  0.75519334  0.43828103  0.26623463  1
  C  C222  1  0.78685733  0.15510051  0.42301857  1
  H  H223  1  0.80777037  0.23961588  0.48742988  1
  O  O224  1  0.77938020  0.05955157  0.35253893  1
  C  C225  1  0.80572306  0.05086210  0.30191289  1
  C  C226  1  0.88768090  0.33035102  0.43477886  1
  C  C227  1  0.80620746  0.14795428  0.37721517  1
  C  C228  1  0.82084759  0.24163451  0.45075103  1
  H  H229  1  0.99181016  0.10300820  0.34198215  1
  H  H230  1  0.57870069  0.39884113  0.44619401  1
  H  H231  1  0.94766626  0.40343678  0.37432087  1
  C  C232  1  0.50595326  0.16833831  0.26318274  1
  C  C233  1  0.94493603  0.41527741  0.46250867  1
  O  O234  1  0.85933933  0.25574168  0.25338320  1
  O  O235  1  0.90862116  0.27060648  0.74309260  1
  O  O236  1  0.80422443  0.19913199  0.56034388  1
  Zn  Zn237  1  0.77849681  0.37863314  0.54446618  1
  H  H238  1  0.81374237  0.35762110  0.69001595  1
  C  C239  1  0.66967058  0.45079403  0.71657685  1
  C  C240  1  0.74886745  0.14279325  0.72531867  1
  O  O241  1  0.61890164  0.23299531  0.57372548  1
  C  C242  1  0.70194081  0.05330849  0.59904461  1
  O  O243  1  0.81738881  0.42945067  0.60818142  1
  H  H244  1  0.87939350  0.02280878  0.57043798  1
  C  C245  1  0.74209383  0.41712006  0.68192782  1
  C  C246  1  0.70397779  0.16519719  0.57731145  1
  C  C247  1  0.73678572  0.45553390  0.63744515  1
  H  H248  1  0.53481382  0.06608754  0.63954327  1
  H  H249  1  0.75912979  0.14623644  0.68896462  1
  O  O250  1  0.93583733  0.41306896  0.50457816  1
  H  H251  1  0.51550298  0.34743474  0.74828754  1
  C  C252  1  0.67225478  0.06531256  0.74433809  1
  C  C253  1  0.61505310  0.01309409  0.62938522  1
  H  H254  1  0.61391194  0.02266482  0.71862010  1
  O  O255  1  0.63663842  0.44043916  0.50709068  1
  C  C256  1  0.86923003  0.18898862  0.98160743  1
  O  O257  1  0.87141560  0.02346229  0.92068554  1
  H  H258  1  0.67730100  0.42532895  0.75064579  1
  H  H259  1  0.87694662  0.32966056  0.93800582  1
  C  C260  1  0.79501471  0.19040267  0.80209650  1
  C  C261  1  0.65621475  0.04934925  0.79005821  1
  C  C262  1  0.93013655  0.08599519  0.89395550  1
  H  H263  1  0.79236719  0.23196218  0.99886358  1
  C  C264  1  0.71572283  0.11830473  0.82150638  1
  O  O265  1  0.95977166  0.18776698  0.89856385  1
  H  H266  1  0.84711606  0.23487552  0.82779785  1
  C  C267  1  0.97663262  0.33674721  0.77499705  1
  C  C268  1  0.93106261  0.25589985  0.94690298  1
  H  H269  1  0.70817964  0.10855631  0.85808822  1
  O  O270  1  0.60624465  0.29608612  0.98815153  1
  C  C271  1  0.96519438  0.03098917  0.85417835  1
  C  C272  1  0.84362323  0.06729352  0.97173184  1
  H  H273  1  0.90889919  0.39230334  0.79238140  1
  H  H274  1  0.76354880  0.03378847  0.98812413  1
  H  H275  1  0.52770170  0.40368814  0.91852908  1
  H  H276  1  0.99771741  0.26499641  0.79756426  1
  C  C277  1  0.81896937  0.20196860  0.75632413  1
  C  C278  1  0.53172147  0.94665099  0.13227545  1
  C  C279  1  0.98363707  0.77662551  0.08406693  1
  C  C280  1  0.88518061  0.60773516  0.17241010  1
  Zn  Zn281  1  0.95477128  0.91815591  0.05082508  1
  H  H282  1  0.75793153  0.72138669  0.18998821  1
  Zn  Zn283  1  0.56173248  0.50754907  0.02443604  1
  C  C284  1  0.93458257  0.78220337  0.21531923  1
  H  H285  1  0.81825183  0.55247860  0.15731121  1
  H  H286  1  0.59963513  0.53626556  0.22143605  1
  C  C287  1  0.56992456  0.89847154  0.21019573  1
  C  C288  1  0.85580163  0.70483656  0.19361874  1
  H  H289  1  0.66660436  0.88512696  0.20151574  1
  O  O290  1  0.89942084  0.71913415  0.09289989  1
  O  O291  1  0.88552435  0.87143210  0.23394737  1
  H  H292  1  0.63662368  0.95718058  0.12521181  1
  H  H293  1  0.97578813  0.92391207  0.15350152  1
  C  C294  1  0.51091400  0.98782318  0.17860784  1
  H  H295  1  0.57736155  0.94246572  0.24357712  1
  H  H296  1  0.65970486  0.92154989  0.39791430  1
  C  C297  1  0.96258997  0.94778402  0.26107042  1
  C  C298  1  0.58309134  0.59603036  0.32571959  1
  C  C299  1  0.65694584  0.68990436  0.31540836  1
  H  H300  1  0.88051555  0.98935883  0.40009878  1
  H  H301  1  0.69333095  0.82373656  0.27354883  1
  C  C302  1  0.53053082  0.73493063  0.25213119  1
  O  O303  1  0.71000831  0.56930153  0.39436625  1
  C  C304  1  0.63160327  0.75183072  0.27953479  1
  H  H305  1  0.73169054  0.71265293  0.33836865  1
  C  C306  1  0.70256354  0.91312733  0.46893853  1
  C  C307  1  0.83929167  0.91118365  0.46675341  1
  C  C308  1  0.91696290  0.95697474  0.43303871  1
  Zn  Zn309  1  0.57536025  0.64101064  0.46724122  1
  C  C310  1  0.62267652  0.91907305  0.43117702  1
  C  C311  1  0.71208308  0.54179530  0.43530991  1
  H  H312  1  0.80519991  0.55159905  0.44570148  1
  C  C313  1  0.60486107  0.52970323  0.36405454  1
  H  H314  1  0.76812745  0.96911442  0.29410279  1
  C  C315  1  0.89903729  0.68611152  0.64470729  1
  C  C316  1  0.64810776  0.92583248  0.51108002  1
  H  H317  1  0.85467468  0.80103921  0.52393953  1
  C  C318  1  0.82327403  0.89392386  0.61478964  1
  C  C319  1  0.63793452  0.90885780  0.64720744  1
  O  O320  1  0.68598227  0.69007733  0.54871617  1
  H  H321  1  0.70406715  0.92082158  0.54083948  1
  H  H322  1  0.56943240  0.87431898  0.66808269  1
  O  O323  1  0.77315425  0.73871395  0.65752371  1
  H  H324  1  0.91377904  0.68087915  0.60882268  1
  H  H325  1  0.90414196  0.53859191  0.69332131  1
  C  C326  1  0.63554027  0.52303656  0.62757588  1
  C  C327  1  0.55922362  0.55191279  0.66144269  1
  H  H328  1  0.52489242  0.77127512  0.61290924  1
  H  H329  1  0.88196741  0.78714738  0.72053522  1
  C  C330  1  0.74110002  0.83620347  0.64176468  1
  C  C331  1  0.58895773  0.69082364  0.53226732  1
  C  C332  1  0.90497976  0.85442796  0.50050507  1
  C  C333  1  0.57542388  0.52278872  0.70608437  1
  C  C334  1  0.95911807  0.58339363  0.66776289  1
  C  C335  1  0.98227450  0.77620877  0.71585470  1
  H  H336  1  0.91154932  0.85456445  0.60833478  1
  H  H337  1  0.62532590  0.55226847  0.59438586  1
  C  C338  1  0.99727856  0.70728561  0.67542243  1
  C  C339  1  0.51699752  0.93391559  0.51538378  1
  C  C340  1  0.81109744  0.99416916  0.59350524  1
  H  H341  1  0.74202136  0.65016888  0.73972859  1
  H  H342  1  0.90698103  0.79869546  0.79313857  1
  C  C343  1  0.54508304  0.67406779  0.87278634  1
  C  C344  1  0.97001876  0.66862857  0.97667600  1
  C  C345  1  0.74621632  0.64420707  0.77569866  1
  H  H346  1  0.87668930  0.87870721  0.86916146  1
  C  C347  1  0.85115466  0.57193470  0.83827319  1
  C  C348  1  0.85226975  0.59182056  0.79166485  1
  C  C349  1  0.94477344  0.88332846  0.80107252  1
  C  C350  1  0.65388927  0.67542965  0.80099931  1
  H  H351  1  0.56772087  0.70649396  0.78530686  1
  C  C352  1  0.65762242  0.65113776  0.84749219  1
  H  H353  1  0.93323581  0.53733029  0.85275724  1
  C  C354  1  0.76005442  0.59781692  0.86632062  1
  C  C355  1  0.92883900  0.92293283  0.84311797  1
  O  O356  1  0.93705064  0.56413003  0.76310760  1
  H  H357  1  0.76302307  0.57862643  0.90305371  1
  O  O358  1  0.50627566  0.91949610  0.78069328  1
  H  H359  1  0.87466497  0.63990001  0.98274977  1
  H  H360  1  0.94953005  0.80758139  0.92689629  1
  O  O361  1  0.54747851  0.61058844  0.91677265  1
  C  C362  1  0.56280396  0.97081926  0.80659834  1
  O  O363  1  0.54293645  0.97699938  0.85207321  1
