# generated using pymatgen
data_CuH2(C3O2)2
_symmetry_space_group_name_H-M   'P 1'
_cell_length_a   16.14144058
_cell_length_b   25.32597157
_cell_length_c   24.12910540
_cell_angle_alpha   90.00000000
_cell_angle_beta   90.00000000
_cell_angle_gamma   90.00000000
_symmetry_Int_Tables_number   1
_chemical_formula_structural   CuH2(C3O2)2
_chemical_formula_sum   'Cu48 H96 C288 O192'
_cell_volume   9863.92194893
_cell_formula_units_Z   48
loop_
 _symmetry_equiv_pos_site_id
 _symmetry_equiv_pos_as_xyz
  1  'x, y, z'
loop_
 _atom_site_type_symbol
 _atom_site_label
 _atom_site_symmetry_multiplicity
 _atom_site_fract_x
 _atom_site_fract_y
 _atom_site_fract_z
 _atom_site_occupancy
  C  C0  1  0.22436200  0.15774580  0.06629598  1
  C  C1  1  0.17905962  0.11148784  0.07860049  1
  C  C2  1  0.21650159  0.06661736  0.10079817  1
  H  H3  1  0.19507882  0.19124161  0.04811141  1
  C  C4  1  0.08879303  0.11431029  0.07738802  1
  H  H5  1  0.18164967  0.03316892  0.11784574  1
  C  C6  1  0.30992227  0.15489238  0.06994758  1
  C  C7  1  0.30191488  0.06705445  0.10451241  1
  C  C8  1  0.35435442  0.20095750  0.05418377  1
  C  C9  1  0.35125505  0.10842000  0.08617243  1
  H  H10  1  0.41994395  0.11002104  0.09000266  1
  O  O11  1  0.43044947  0.19359352  0.04665566  1
  O  O12  1  0.42489903  0.17618372  0.20094449  1
  O  O13  1  0.13507534  0.14210760  0.19673218  1
  C  C14  1  0.05495981  0.48571838  0.07882182  1
  O  O15  1  0.31759253  0.24585393  0.05078106  1
  Cu  Cu16  1  0.49011355  0.27468671  0.12807558  1
  C  C17  1  0.31145204  0.30153102  0.20433057  1
  O  O18  1  0.42244352  0.02225990  0.13118519  1
  C  C19  1  0.21155459  0.36956971  0.22346058  1
  O  O20  1  0.06046145  0.15685062  0.05993943  1
  H  H21  1  0.40469283  0.47592906  0.19403471  1
  C  C22  1  0.45125238  0.39066481  0.13991853  1
  H  H23  1  0.38128546  0.39657494  0.03372851  1
  O  O24  1  0.03685353  0.07978540  0.09474677  1
  C  C25  1  0.39514083  0.43235708  0.11718730  1
  C  C26  1  0.34888421  0.02003219  0.12971719  1
  O  O27  1  0.06769936  0.43104977  0.20767318  1
  H  H28  1  0.01053471  0.38550862  0.05570718  1
  C  C29  1  0.31440754  0.46984073  0.04679840  1
  O  O30  1  0.44245232  0.34114758  0.10995823  1
  O  O31  1  0.37642199  0.27892052  0.21967871  1
  O  O32  1  0.10906677  0.45352102  0.07353500  1
  O  O33  1  0.27262792  0.29072520  0.16151196  1
  H  H34  1  0.17197323  0.35393637  0.19064527  1
  C  C35  1  0.36817105  0.43057470  0.06227920  1
  C  C36  1  0.37860768  0.47311550  0.15417881  1
  Cu  Cu37  1  0.34716650  0.30322077  0.09732723  1
  O  O38  1  0.48173852  0.39489575  0.18359220  1
  C  C39  1  0.12066217  0.45008911  0.23418069  1
  O  O40  1  0.00444030  0.13738120  0.22099464  1
  C  C41  1  0.08183283  0.15227107  0.22857769  1
  C  C42  1  0.49641089  0.17428855  0.18197308  1
  C  C43  1  0.28599090  0.34590619  0.23821613  1
  C  C44  1  0.22366155  0.18127852  0.34791883  1
  H  H45  1  0.24249274  0.16649074  0.26101121  1
  C  C46  1  0.19689678  0.17205198  0.29517922  1
  C  C47  1  0.05253769  0.18062143  0.32530190  1
  C  C48  1  0.11081333  0.16921750  0.28490421  1
  C  C49  1  0.31222251  0.18462594  0.36106235  1
  O  O50  1  0.35799864  0.16916490  0.32118102  1
  C  C51  1  0.08437320  0.19638250  0.37655165  1
  O  O52  1  0.34030706  0.20524056  0.40453071  1
  C  C53  1  0.16740398  0.19192639  0.39039817  1
  Cu  Cu54  1  0.45016740  0.22457549  0.41846525  1
  H  H55  1  0.46634427  0.09751628  0.27472691  1
  H  H56  1  0.40445109  0.34330060  0.28441914  1
  Cu  Cu57  1  0.39651257  0.21673391  0.26848370  1
  O  O58  1  0.44401842  0.28618990  0.45731285  1
  O  O59  1  0.43887599  0.39502833  0.36081539  1
  H  H60  1  0.22655953  0.47021612  0.31425298  1
  C  C61  1  0.31813932  0.40702157  0.30760979  1
  C  C62  1  0.34229439  0.36147021  0.27930079  1
  O  O63  1  0.36769243  0.46922211  0.37269905  1
  O  O64  1  0.05473137  0.21728599  0.46601504  1
  H  H65  1  0.18897141  0.20126979  0.43242648  1
  C  C66  1  0.37466721  0.42682190  0.35198217  1
  C  C67  1  0.24604903  0.43297851  0.29378957  1
  C  C68  1  0.02333929  0.20472974  0.42259485  1
  C  C69  1  0.19372587  0.41720704  0.25044393  1
  C  C70  1  0.00805408  0.16237207  0.59161607  1
  C  C71  1  0.46701678  0.29653886  0.56767272  1
  H  H72  1  0.37457016  0.02215463  0.60730556  1
  C  C73  1  0.13199071  0.11913578  0.62984211  1
  C  C74  1  0.11994665  0.07768140  0.59216355  1
  C  C75  1  0.07784167  0.16062017  0.62581379  1
  H  H76  1  0.18223044  0.12042948  0.66253234  1
  C  C77  1  0.09004723  0.21100200  0.66258929  1
  O  O78  1  0.39860581  0.10978994  0.57968134  1
  O  O79  1  0.33101261  0.14772266  0.67563850  1
  Cu  Cu80  1  0.39354620  0.17575443  0.61461184  1
  O  O81  1  0.14248820  0.20855491  0.70203703  1
  C  C82  1  0.45726062  0.09405817  0.54433046  1
  H  H83  1  0.40769076  0.06013253  0.69862660  1
  O  O84  1  0.04863946  0.24849227  0.65224189  1
  O  O85  1  0.38314182  0.24060151  0.64529729  1
  O  O86  1  0.19878472  0.02292146  0.73638104  1
  C  C87  1  0.05384873  0.07513776  0.55490968  1
  O  O88  1  0.23424711  0.03113574  0.63132464  1
  C  C89  1  0.17923000  0.03231391  0.59100321  1
  C  C90  1  0.44292989  0.26994236  0.66228693  1
  O  O91  1  0.18581545  0.31116033  0.71266357  1
  C  C92  1  0.43848602  0.07810429  0.73581756  1
  O  O93  1  0.48950330  0.46237680  0.58474102  1
  C  C94  1  0.32733504  0.47427534  0.62714362  1
  C  C95  1  0.39857275  0.48182903  0.65877074  1
  C  C96  1  0.33444153  0.15229301  0.72769991  1
  O  O97  1  0.46209345  0.27385846  0.71232491  1
  C  C98  1  0.03552797  0.37417542  0.73216726  1
  H  H99  1  0.33145654  0.46584488  0.58253703  1
  O  O100  1  0.17409035  0.46990290  0.57366178  1
  H  H101  1  0.45315340  0.49747452  0.73957872  1
  H  H102  1  0.04554776  0.04652587  0.52201697  1
  C  C103  1  0.12738579  0.03530949  0.73921152  1
  O  O104  1  0.06667432  0.00850480  0.71827737  1
  H  H105  1  0.41298950  0.27298311  0.55125233  1
  C  C106  1  0.48273020  0.47398240  0.63309928  1
  H  H107  1  0.03499139  0.34623970  0.69695448  1
  C  C108  1  0.17601903  0.48665769  0.61933989  1
  C  C109  1  0.39736715  0.49415253  0.71399867  1
  Cu  Cu110  1  0.23420651  0.24904208  0.72557038  1
  C  C111  1  0.42563855  0.00607559  0.58076840  1
  C  C112  1  0.47690716  0.03661520  0.54569834  1
  C  C113  1  0.25257776  0.48389908  0.65332859  1
  C  C114  1  0.24343246  0.49639535  0.70925093  1
  O  O115  1  0.49160737  0.12422733  0.51360520  1
  H  H116  1  0.00496429  0.10073331  0.70983869  1
  C  C117  1  0.49395146  0.29792611  0.62212890  1
  H  H118  1  0.39554249  0.17751787  0.82956796  1
  C  C119  1  0.12625144  0.14714623  0.90789830  1
  C  C120  1  0.09993235  0.08121856  0.77258307  1
  H  H121  1  0.19394833  0.07712521  0.83578504  1
  C  C122  1  0.42990686  0.14602679  0.80690467  1
  C  C123  1  0.13566219  0.09483837  0.82179517  1
  C  C124  1  0.09208259  0.13325503  0.85182303  1
  O  O125  1  0.19611024  0.13552112  0.92031109  1
  O  O126  1  0.07986493  0.17623301  0.93896426  1
  C  C127  1  0.18650286  0.34750603  0.75063561  1
  C  C128  1  0.02503794  0.16266723  0.83295118  1
  O  O129  1  0.30342743  0.43005155  0.96210562  1
  Cu  Cu130  1  0.47299176  0.19611354  0.97454243  1
  C  C131  1  0.27342136  0.46487922  0.98786709  1
  C  C132  1  0.04955017  0.44996335  0.81791262  1
  C  C133  1  0.11535680  0.41672604  0.80428237  1
  H  H134  1  0.17397661  0.41824776  0.82463126  1
  Cu  Cu135  1  0.00517232  0.15749494  0.99553565  1
  O  O136  1  0.09663252  0.49439703  0.89790837  1
  C  C137  1  0.10790565  0.38077727  0.76151116  1
  O  O138  1  0.24793320  0.36116547  0.77351547  1
  C  C139  1  0.04160561  0.48841428  0.86182185  1
  C  C140  1  0.40316768  0.12526947  0.75681327  1
  O  O141  1  0.49819600  0.18858911  0.90060140  1
  C  C142  1  0.49909460  0.11897445  0.82848396  1
  O  O143  1  0.22294880  0.49926213  0.97005515  1
  O  O144  1  0.29002827  0.18537559  0.75254587  1
  C  C145  1  0.03067477  0.10614808  0.75151023  1
  C  C146  1  0.02897388  0.67668637  0.10255362  1
  H  H147  1  0.28702451  0.71956327  0.09147279  1
  O  O148  1  0.24255290  0.58492485  0.15915583  1
  H  H149  1  0.09725048  0.67221901  0.10326704  1
  C  C150  1  0.31343749  0.73556883  0.05287313  1
  Cu  Cu151  1  0.15005095  0.55971308  0.13002470  1
  C  C152  1  0.30517147  0.55446952  0.17490353  1
  O  O153  1  0.33946125  0.55771726  0.21891505  1
  O  O154  1  0.08170544  0.60292712  0.17421372  1
  O  O155  1  0.27717834  0.62408538  0.04298122  1
  H  H156  1  0.25425340  0.54592013  0.06238744  1
  O  O157  1  0.06624876  0.53657074  0.08392263  1
  O  O158  1  0.13432018  0.94841447  0.11622320  1
  H  H159  1  0.02268580  0.92109233  0.05791842  1
  O  O160  1  0.24572224  0.81078652  0.13162439  1
  O  O161  1  0.23069491  0.98161670  0.02162344  1
  C  C162  1  0.06901398  0.73292695  0.02465259  1
  C  C163  1  0.36613595  0.81046529  0.00417099  1
  C  C164  1  0.03051619  0.89062069  0.14381848  1
  Cu  Cu165  1  0.24276196  0.93999080  0.08298819  1
  C  C166  1  0.32262697  0.79001200  0.05047498  1
  O  O167  1  0.31395672  0.87434025  0.09333038  1
  O  O168  1  0.14246042  0.91818798  0.20197324  1
  O  O169  1  0.14205642  0.73110465  0.03704406  1
  C  C170  1  0.10548707  0.92141260  0.15576115  1
  O  O171  1  0.30258759  0.97765947  0.13593344  1
  C  C172  1  0.29425962  0.82702484  0.09453206  1
  Cu  Cu173  1  0.24310502  0.82915787  0.20601291  1
  H  H174  1  0.02588535  0.85387288  0.22610879  1
  C  C175  1  0.00313285  0.60910439  0.17518466  1
  C  C176  1  0.33787958  0.70383223  0.00817493  1
  C  C177  1  0.29298923  0.51285967  0.07896508  1
  C  C178  1  0.32506149  0.51165388  0.13266229  1
  H  H179  1  0.37634837  0.85249803  0.00533366  1
  O  O180  1  0.24190364  0.75657137  0.22965938  1
  C  C181  1  0.32008426  0.64557786  0.00899152  1
  C  C182  1  0.29761600  0.66155577  0.39893335  1
  C  C183  1  0.23197417  0.62452302  0.39124698  1
  C  C184  1  0.18339451  0.63051894  0.34371206  1
  H  H185  1  0.22332725  0.59231830  0.42011233  1
  C  C186  1  0.34028067  0.66240196  0.45185364  1
  C  C187  1  0.31585560  0.70090395  0.35924159  1
  H  H188  1  0.36887581  0.72989124  0.36018634  1
  C  C189  1  0.26114915  0.70406228  0.31453777  1
  O  O190  1  0.11599768  0.54871245  0.36701021  1
  C  C191  1  0.19214125  0.67198958  0.30699465  1
  Cu  Cu192  1  0.01803508  0.53464749  0.25620391  1
  C  C193  1  0.11621841  0.59112427  0.33867008  1
  O  O194  1  0.08942087  0.81863987  0.48771221  1
  O  O195  1  0.05951375  0.59752602  0.30352262  1
  O  O196  1  0.37651851  0.70587432  0.46235501  1
  C  C197  1  0.28797591  0.74434617  0.27155510  1
  H  H198  1  0.12470345  0.83607008  0.40002580  1
  O  O199  1  0.47328870  0.79013097  0.46379597  1
  Cu  Cu200  1  0.48971912  0.71568573  0.46588036  1
  H  H201  1  0.36979907  0.84948317  0.32749400  1
  O  O202  1  0.34880493  0.76804415  0.28280504  1
  O  O203  1  0.12659974  0.87156316  0.30615591  1
  C  C204  1  0.30859167  0.80924604  0.46084132  1
  C  C205  1  0.32993847  0.84336515  0.36506774  1
  O  O206  1  0.25176886  0.85882507  0.26769278  1
  C  C207  1  0.24381431  0.84819937  0.36132929  1
  C  C208  1  0.20061773  0.85949439  0.30879947  1
  C  C209  1  0.19168947  0.83587803  0.40542590  1
  C  C210  1  0.45025992  0.81451164  0.41776919  1
  C  C211  1  0.35922899  0.82612186  0.41574139  1
  C  C212  1  0.22257012  0.81240390  0.45366333  1
  H  H213  1  0.14883931  0.67640555  0.27265811  1
  Cu  Cu214  1  0.03305129  0.54516264  0.42405312  1
  Cu  Cu215  1  0.09675433  0.93626506  0.27062989  1
  O  O216  1  0.32467093  0.62837727  0.48949625  1
  H  H217  1  0.33766303  0.79034962  0.49685859  1
  C  C218  1  0.16139714  0.80133243  0.49761536  1
  O  O219  1  0.04620268  0.99765320  0.25065579  1
  O  O220  1  0.11870806  0.50106621  0.25101459  1
  C  C221  1  0.20282325  0.60529754  0.62847328  1
  H  H222  1  0.34963959  0.60326560  0.68218007  1
  O  O223  1  0.13054640  0.60821188  0.60873863  1
  C  C224  1  0.29857883  0.62069959  0.70510981  1
  Cu  Cu225  1  0.04932835  0.55607385  0.60052946  1
  C  C226  1  0.21798022  0.62419889  0.68511629  1
  Cu  Cu227  1  0.33328344  0.63485923  0.56295828  1
  O  O228  1  0.26248397  0.59045694  0.59915378  1
  Cu  Cu229  1  0.25468786  0.97635233  0.68104272  1
  O  O230  1  0.42100924  0.66636417  0.60319086  1
  H  H231  1  0.43393027  0.72782382  0.67327345  1
  H  H232  1  0.09189021  0.64765311  0.70320205  1
  Cu  Cu233  1  0.02498185  0.83632080  0.54694149  1
  C  C234  1  0.15232989  0.64622217  0.71581866  1
  O  O235  1  0.17008600  0.99577512  0.55946533  1
  O  O236  1  0.27383000  0.91975792  0.73308030  1
  C  C237  1  0.44254521  0.95353418  0.57786961  1
  O  O238  1  0.18476841  0.78095351  0.54262318  1
  O  O239  1  0.49531958  0.97459394  0.70636587  1
  O  O240  1  0.31368102  0.93428494  0.62414363  1
  C  C241  1  0.48353946  0.68828355  0.57973580  1
  Cu  Cu242  1  0.45668082  0.90777902  0.72296115  1
  C  C243  1  0.38806828  0.92273678  0.61718702  1
  Cu  Cu244  1  0.13207707  0.79805453  0.60728701  1
  O  O245  1  0.06846913  0.81918544  0.66369918  1
  O  O246  1  0.42959121  0.89439247  0.64926595  1
  C  C247  1  0.48929180  0.74798113  0.65417154  1
  H  H248  1  0.18031292  0.50431985  0.72907318  1
  C  C249  1  0.00020555  0.84315815  0.65965069  1
  O  O250  1  0.11237715  0.51026734  0.64272434  1
  C  C251  1  0.31730502  0.50077617  0.73745097  1
  H  H252  1  0.40824028  0.69584412  0.93246769  1
  C  C253  1  0.38387681  0.72144585  0.96461498  1
  C  C254  1  0.11551330  0.69726704  0.80301173  1
  O  O255  1  0.34941105  0.61996743  0.96696519  1
  C  C256  1  0.25787265  0.66815986  0.78844514  1
  H  H257  1  0.27450636  0.68656796  0.82654215  1
  C  C258  1  0.40445979  0.63829193  0.77876440  1
  H  H259  1  0.04774755  0.80897061  0.76044191  1
  Cu  Cu260  1  0.43208311  0.56296561  0.96603817  1
  O  O261  1  0.13979521  0.71514607  0.85002493  1
  O  O262  1  0.41869230  0.66827770  0.82200712  1
  C  C263  1  0.25754318  0.94012450  0.82368418  1
  C  C264  1  0.31311207  0.50920536  0.80017418  1
  C  C265  1  0.24560759  0.96318294  0.92125274  1
  H  H266  1  0.12516353  0.97311616  0.95565797  1
  O  O267  1  0.05110208  0.80625967  0.86736178  1
  O  O268  1  0.24047720  0.50977652  0.82279884  1
  O  O269  1  0.35315243  0.97666616  0.97923652  1
  C  C270  1  0.44246468  0.79994383  0.91846454  1
  H  H271  1  0.36144438  0.94299077  0.88075517  1
  C  C272  1  0.31512792  0.92856255  0.77773991  1
  C  C273  1  0.17793186  0.66850906  0.76571324  1
  O  O274  1  0.04668436  0.75629011  0.97740179  1
  C  C275  1  0.03386015  0.95989304  0.85630058  1
  Cu  Cu276  1  0.08581093  0.74611620  0.90707921  1
  C  C277  1  0.17250879  0.94542434  0.81757817  1
  O  O278  1  0.46363747  0.84845287  0.91932859  1
  C  C279  1  0.15992950  0.96263224  0.91759428  1
  C  C280  1  0.29326487  0.94636347  0.87658341  1
  C  C281  1  0.27709296  0.97671413  0.97811200  1
  O  O282  1  0.39065169  0.92315066  0.78300470  1
  C  C283  1  0.39595305  0.77753261  0.96367849  1
  H  H284  1  0.14087522  0.93966160  0.77672433  1
  C  C285  1  0.12539557  0.95750078  0.86438922  1
  O  O286  1  0.47384705  0.76715643  0.88403385  1
  O  O287  1  0.37556582  0.51037199  0.82588360  1
  Cu  Cu288  1  0.45180633  0.73362496  0.81931754  1
  O  O289  1  0.05313363  0.70748035  0.77954984  1
  Cu  Cu290  1  0.21527083  0.50857799  0.89388543  1
  O  O291  1  0.44412255  0.78101321  0.75965000  1
  C  C292  1  0.31596399  0.64093860  0.75753319  1
  O  O293  1  0.00289916  0.95759231  0.80869819  1
  O  O294  1  0.45671795  0.61730796  0.75152534  1
  Cu  Cu295  1  0.85169137  0.13015381  0.09657360  1
  O  O296  1  0.74322449  0.09538990  0.10128472  1
  C  C297  1  0.60586909  0.11369703  0.16708604  1
  H  H298  1  0.62420182  0.13774033  0.13176000  1
  O  O299  1  0.83461590  0.17826465  0.15730101  1
  C  C300  1  0.76465927  0.19433898  0.17470814  1
  C  C301  1  0.72555917  0.05940492  0.14055502  1
  C  C302  1  0.65633723  0.07005668  0.17835263  1
  C  C303  1  0.73680593  0.17927535  0.22944173  1
  O  O304  1  0.87836482  0.09016482  0.03707785  1
  O  O305  1  0.76775014  0.02103234  0.14772437  1
  O  O306  1  0.67512285  0.48445550  0.09752526  1
  C  C307  1  0.53921043  0.12533910  0.20225689  1
  O  O308  1  0.72287989  0.22781804  0.14793294  1
  C  C309  1  0.64454110  0.03752369  0.22651259  1
  C  C310  1  0.53662291  0.37172749  0.01049369  1
  C  C311  1  0.74754543  0.36371905  0.23422743  1
  C  C312  1  0.95913675  0.40991485  0.06580934  1
  O  O313  1  0.73651712  0.31532874  0.21897700  1
  C  C314  1  0.96816789  0.46356819  0.07736338  1
  C  C315  1  0.57289236  0.27798250  0.02113248  1
  O  O316  1  0.52616060  0.47785284  0.04734827  1
  H  H317  1  0.74652363  0.40406558  0.07559665  1
  C  C318  1  0.90063918  0.49653162  0.08724533  1
  H  H319  1  0.78549833  0.01854707  0.02528567  1
  C  C320  1  0.87580059  0.32930718  0.05753072  1
  O  O321  1  0.94036743  0.30562080  0.04707364  1
  C  C322  1  0.82233736  0.47281488  0.08200493  1
  Cu  Cu323  1  0.97430438  0.08747344  0.16156313  1
  O  O324  1  0.57981235  0.28508806  0.07163929  1
  H  H325  1  0.53206112  0.37594801  0.05590076  1
  C  C326  1  0.88013935  0.38670104  0.06941023  1
  H  H327  1  0.63663846  0.23567122  0.23004365  1
  Cu  Cu328  1  0.77112932  0.29922973  0.14826697  1
  O  O329  1  0.81046089  0.30388510  0.07595874  1
  O  O330  1  0.72978562  0.40177415  0.20850796  1
  C  C331  1  0.81046417  0.41832368  0.07701485  1
  C  C332  1  0.52213947  0.09372620  0.24618655  1
  O  O333  1  0.52402675  0.20493111  0.14598725  1
  O  O334  1  0.97391055  0.00949427  0.17297412  1
  H  H335  1  0.68361025  0.00354365  0.24064380  1
  H  H336  1  0.83835612  0.12678066  0.24596416  1
  C  C337  1  0.77294869  0.07097491  0.33782007  1
  O  O338  1  0.72868615  0.04801803  0.37689577  1
  C  C339  1  0.73500648  0.11970338  0.30713021  1
  C  C340  1  0.66410351  0.13981827  0.32988994  1
  H  H341  1  0.63489742  0.12256173  0.36828384  1
  Cu  Cu342  1  0.85055284  0.21107141  0.46394373  1
  O  O343  1  0.94450096  0.19902343  0.41335422  1
  C  C344  1  0.62963915  0.18194518  0.29976645  1
  O  O345  1  0.83808330  0.05480887  0.32417957  1
  O  O346  1  0.97737633  0.48879407  0.38865588  1
  C  C347  1  0.56385055  0.01435484  0.30680085  1
  C  C348  1  0.93337437  0.48212183  0.34598179  1
  O  O349  1  0.67854029  0.47612464  0.35617375  1
  C  C350  1  0.88747045  0.43237083  0.33801352  1
  C  C351  1  0.66309274  0.20010318  0.25083521  1
  O  O352  1  0.53766597  0.19286490  0.37450523  1
  C  C353  1  0.55234866  0.20337126  0.32543663  1
  H  H354  1  0.82769830  0.45424422  0.26193555  1
  C  C355  1  0.77819978  0.14032215  0.26159234  1
  O  O356  1  0.54408990  0.34139817  0.43507801  1
  C  C357  1  0.80303819  0.33655924  0.32663545  1
  C  C358  1  0.88978717  0.39452594  0.38024798  1
  O  O359  1  0.63874611  0.42797647  0.42625408  1
  C  C360  1  0.79589858  0.37523702  0.28725661  1
  C  C361  1  0.84229714  0.34838141  0.37764697  1
  O  O362  1  0.81783399  0.26453650  0.41696126  1
  O  O363  1  0.85700027  0.32924073  0.47149869  1
  C  C364  1  0.84125188  0.31122857  0.42432494  1
  H  H365  1  0.93002428  0.40282492  0.41511356  1
  H  H366  1  0.77716898  0.29624123  0.32523001  1
  C  C367  1  0.66437341  0.47174113  0.40382005  1
  C  C368  1  0.83537439  0.42399359  0.29276838  1
  H  H369  1  0.98591413  0.17869249  0.31818099  1
  Cu  Cu370  1  0.53615887  0.40789909  0.40142455  1
  C  C371  1  0.57714000  0.05022048  0.25693316  1
  C  C372  1  0.50206857  0.31731115  0.47026255  1
  H  H373  1  0.58786852  0.03882413  0.49021027  1
  O  O374  1  0.50610311  0.23695780  0.30109716  1
  O  O375  1  0.50267231  0.01463701  0.33471038  1
  O  O376  1  0.91748146  0.07918704  0.48679181  1
  H  H377  1  0.71569922  0.14657126  0.56865739  1
  C  C378  1  0.71876947  0.17134212  0.60484837  1
  C  C379  1  0.70647875  0.14639396  0.65607929  1
  C  C380  1  0.70545849  0.17137337  0.70752175  1
  C  C381  1  0.68862253  0.08832302  0.65436374  1
  C  C382  1  0.74676055  0.22267274  0.61096946  1
  O  O383  1  0.68677586  0.06473614  0.70343660  1
  O  O384  1  0.68557458  0.06407937  0.61194465  1
  C  C385  1  0.72630516  0.22450161  0.70872767  1
  O  O386  1  0.82043093  0.41834668  0.73413864  1
  C  C387  1  0.88607261  0.38971839  0.72436812  1
  C  C388  1  0.52157315  0.32157555  0.52995046  1
  H  H389  1  0.58984303  0.32417693  0.68159945  1
  Cu  Cu390  1  0.79040195  0.35791464  0.52586382  1
  O  O391  1  0.88712357  0.16484064  0.71549856  1
  C  C392  1  0.59344735  0.34709093  0.54323599  1
  H  H393  1  0.96073961  0.19580519  0.59322530  1
  O  O394  1  0.88102140  0.34586977  0.69991801  1
  C  C395  1  0.53727717  0.00175625  0.73966059  1
  H  H396  1  0.68850599  0.15160674  0.74681596  1
  Cu  Cu397  1  0.70725070  0.43073752  0.71299239  1
  C  C398  1  0.61442232  0.34770115  0.59997891  1
  O  O399  1  0.73335051  0.39495549  0.57685603  1
  O  O400  1  0.70685042  0.37396791  0.66678728  1
  C  C401  1  0.56643995  0.32435100  0.63986975  1
  C  C402  1  0.75257478  0.25092762  0.66217748  1
  C  C403  1  0.77373837  0.25171951  0.56241504  1
  O  O404  1  0.80757681  0.29647778  0.56770919  1
  C  C405  1  0.93008588  0.11757456  0.51726700  1
  C  C406  1  0.69138804  0.37220651  0.61472198  1
  H  H407  1  0.76369764  0.29452081  0.66067417  1
  C  C408  1  0.99922591  0.11795056  0.55747855  1
  H  H409  1  0.70895084  0.48148612  0.51443965  1
  C  C410  1  0.54263013  0.01520136  0.51477774  1
  O  O411  1  0.54988063  0.48534227  0.66284669  1
  O  O412  1  0.76613504  0.22913150  0.51548729  1
  Cu  Cu413  1  0.89014180  0.28326682  0.74026608  1
  O  O414  1  0.88184473  0.15769984  0.52028345  1
  H  H415  1  0.62924693  0.36970637  0.51049913  1
  C  C416  1  0.96539983  0.40464693  0.74741088  1
  H  H417  1  0.88295488  0.09138670  0.87352126  1
  C  C418  1  0.84661548  0.05931411  0.89301054  1
  C  C419  1  0.83262432  0.05803161  0.95013815  1
  O  O420  1  0.69494962  0.48639827  0.76527732  1
  O  O421  1  0.87397734  0.04941356  0.78434792  1
  O  O422  1  0.91257322  0.13426793  0.96165397  1
  H  H423  1  0.92461544  0.46834438  0.79955748  1
  C  C424  1  0.78836325  0.02094012  0.97889243  1
  C  C425  1  0.52395070  0.41457016  0.97427230  1
  C  C426  1  0.53968702  0.07510104  0.80788841  1
  C  C427  1  0.87155079  0.09826720  0.98484457  1
  C  C428  1  0.80414544  0.02162962  0.86379371  1
  C  C429  1  0.81681143  0.02056657  0.80311482  1
  O  O430  1  0.57113749  0.23464812  0.99695257  1
  C  C431  1  0.52007448  0.40743617  0.91745811  1
  H  H432  1  0.59472557  0.05736119  0.82777154  1
  O  O433  1  0.77770404  0.28581652  0.76740626  1
  H  H434  1  0.55484768  0.27474719  0.90806301  1
  C  C435  1  0.52011530  0.34863794  0.83117533  1
  O  O436  1  0.65568991  0.24682552  0.78767868  1
  O  O437  1  0.59032136  0.12714878  0.90106005  1
  C  C438  1  0.54872910  0.32290980  0.98456131  1
  O  O439  1  0.90264234  0.22309590  0.78157929  1
  C  C440  1  0.54413842  0.31484862  0.92692452  1
  C  C441  1  0.51550412  0.46845448  0.99600526  1
  C  C442  1  0.53048376  0.35731150  0.89311400  1
  O  O443  1  0.51293950  0.38458100  0.80126082  1
  C  C444  1  0.52851089  0.14521951  0.88008787  1
  C  C445  1  0.97574620  0.44350015  0.78805503  1
  H  H446  1  0.50424402  0.44284115  0.89263951  1
  O  O447  1  0.51429523  0.29863009  0.81613286  1
  C  C448  1  0.99418746  0.14764297  0.78142136  1
  Cu  Cu449  1  0.97016993  0.01018005  0.76324259  1
  C  C450  1  0.50594042  0.05367970  0.75930597  1
  C  C451  1  0.72061418  0.25328370  0.76086664  1
  C  C452  1  0.92277961  0.17776932  0.75551138  1
  H  H453  1  0.99747760  0.19475174  0.85717594  1
  Cu  Cu454  1  0.55391785  0.26058537  0.75626214  1
  C  C455  1  0.52534372  0.67164184  0.07332032  1
  C  C456  1  0.52882784  0.67057971  0.13183192  1
  C  C457  1  0.55257185  0.71663288  0.15677830  1
  C  C458  1  0.54132714  0.71593798  0.04138152  1
  C  C459  1  0.51189983  0.61993569  0.04681724  1
  C  C460  1  0.86568776  0.68854703  0.08522196  1
  O  O461  1  0.75853370  0.55313850  0.09710709  1
  C  C462  1  0.57570631  0.71750399  0.21543507  1
  H  H463  1  0.51768593  0.63461953  0.15350400  1
  O  O464  1  0.72449576  0.65662705  0.08882269  1
  Cu  Cu465  1  0.58737432  0.53160531  0.08720691  1
  H  H466  1  0.84534849  0.62450147  0.14447081  1
  C  C467  1  0.88966508  0.64967650  0.12244357  1
  C  C468  1  0.91666696  0.71871688  0.05156931  1
  O  O469  1  0.50294408  0.58153245  0.07971447  1
  H  H470  1  0.91083637  0.53591606  0.10294763  1
  Cu  Cu471  1  0.69347088  0.59935090  0.04760180  1
  C  C472  1  0.77335048  0.69597175  0.07270592  1
  O  O473  1  0.59832089  0.84971231  0.06676257  1
  O  O474  1  0.83045213  0.76559679  0.19710125  1
  O  O475  1  0.67761346  0.93856933  0.01868558  1
  O  O476  1  0.57454063  0.67441271  0.24356742  1
  C  C477  1  0.55553671  0.76268855  0.07057937  1
  H  H478  1  0.89419916  0.74566569  0.01744756  1
  C  C479  1  0.91255226  0.95957124  0.24201651  1
  C  C480  1  0.55558544  0.76488110  0.12742028  1
  O  O481  1  0.74932910  0.88918274  0.13592464  1
  Cu  Cu482  1  0.72091998  0.76959800  0.21872706  1
  C  C483  1  0.88999765  0.82907077  0.12004968  1
  C  C484  1  0.88989256  0.79520910  0.21541316  1
  O  O485  1  0.69016820  0.84437986  0.20554275  1
  H  H486  1  0.83424184  0.80728826  0.11063742  1
  C  C487  1  0.92219764  0.86721171  0.08377938  1
  C  C488  1  0.80073601  0.90086016  0.22503268  1
  C  C489  1  0.93030810  0.82691094  0.17187835  1
  C  C490  1  0.87292507  0.88094378  0.03506990  1
  C  C491  1  0.57966543  0.80820377  0.03784042  1
  O  O492  1  0.80419157  0.85483887  0.03343665  1
  O  O493  1  0.61309683  0.75615611  0.23514294  1
  H  H494  1  0.86147512  0.94388949  0.16025370  1
  C  C495  1  0.74283856  0.87593680  0.18617534  1
  Cu  Cu496  1  0.70378884  0.87564383  0.06814159  1
  H  H497  1  0.55979604  0.80245671  0.14986785  1
  C  C498  1  0.85984525  0.93641092  0.20455077  1
  O  O499  1  0.75597230  0.73094084  0.04316847  1
  C  C500  1  0.99857884  0.85737580  0.18433140  1
  C  C501  1  0.99470542  0.89672165  0.09172065  1
  C  C502  1  0.74732698  0.50337874  0.09352290  1
  O  O503  1  0.95509491  0.58064691  0.20616132  1
  C  C504  1  0.97455468  0.64569740  0.13485949  1
  C  C505  1  0.97956635  0.99349756  0.22226944  1
  C  C506  1  0.99998927  0.70944683  0.06134152  1
  O  O507  1  0.74290002  0.68553715  0.32564070  1
  Cu  Cu508  1  0.63433600  0.67195002  0.30669652  1
  C  C509  1  0.78554698  0.65054298  0.35198506  1
  C  C510  1  0.83342315  0.66263677  0.40392367  1
  C  C511  1  0.83851524  0.71512142  0.42043277  1
  O  O512  1  0.79144879  0.60586896  0.33504978  1
  C  C513  1  0.66115704  0.61585801  0.44815327  1
  O  O514  1  0.59032785  0.65940669  0.37831678  1
  H  H515  1  0.87111230  0.57756249  0.41171789  1
  C  C516  1  0.87294714  0.61953968  0.42916582  1
  O  O517  1  0.60490295  0.70424910  0.45473701  1
  C  C518  1  0.62171743  0.66419193  0.42621045  1
  C  C519  1  0.65565527  0.56865214  0.41724492  1
  H  H520  1  0.80875469  0.74783156  0.39611163  1
  Cu  Cu521  1  0.69556674  0.97969621  0.38645390  1
  C  C522  1  0.62581965  0.94078392  0.48648695  1
  C  C523  1  0.88091694  0.72379080  0.46970977  1
  H  H524  1  0.63547620  0.57343393  0.37352596  1
  Cu  Cu525  1  0.75196295  0.85299072  0.46874675  1
  O  O526  1  0.66322935  0.97908900  0.46221565  1
  O  O527  1  0.93494656  0.51536465  0.30690582  1
  O  O528  1  0.64997417  0.89455546  0.48031451  1
  C  C529  1  0.67087606  0.52049661  0.44080188  1
  C  C530  1  0.90632185  0.94955489  0.29917792  1
  O  O531  1  0.77146347  0.88947937  0.39514168  1
  H  H532  1  0.94327293  0.97176002  0.32925072  1
  C  C533  1  0.79213284  0.88801495  0.28101063  1
  C  C534  1  0.91243843  0.63275607  0.47872610  1
  O  O535  1  0.88039205  0.94264492  0.41049071  1
  C  C536  1  0.83472617  0.91794448  0.37936548  1
  H  H537  1  0.74714375  0.85917217  0.29946408  1
  O  O538  1  0.86089890  0.81301019  0.45913235  1
  C  C539  1  0.84314465  0.91711371  0.31677910  1
  C  C540  1  0.89349668  0.77782461  0.48945715  1
  O  O541  1  0.62755130  0.98347699  0.32248494  1
  O  O542  1  0.95209511  0.54471158  0.48399335  1
  O  O543  1  0.50270119  0.82546021  0.38435731  1
  O  O544  1  0.91427661  0.79584929  0.26348247  1
  C  C545  1  0.69402531  0.51941436  0.49637477  1
  C  C546  1  0.74854456  0.57295687  0.58153534  1
  O  O547  1  0.76480319  0.61521043  0.60075710  1
  C  C548  1  0.55425503  0.96108273  0.51735833  1
  O  O549  1  0.65886760  0.55187661  0.70997852  1
  H  H550  1  0.69419752  0.65158297  0.52650712  1
  C  C551  1  0.50272004  0.92761350  0.54837471  1
  O  O552  1  0.75264783  0.52962413  0.61140245  1
  Cu  Cu553  1  0.65273607  0.50842048  0.64192070  1
  O  O554  1  0.73526996  0.81277353  0.53200395  1
  C  C555  1  0.86810702  0.86299380  0.70694004  1
  Cu  Cu556  1  0.69763213  0.99201500  0.71237773  1
  H  H557  1  0.94039413  0.68992375  0.54101905  1
  H  H558  1  0.62121022  0.74497255  0.53635942  1
  C  C559  1  0.59609958  0.75692963  0.57780506  1
  C  C560  1  0.62951514  0.80010152  0.60441438  1
  O  O561  1  0.97896964  0.59551039  0.55601407  1
  C  C562  1  0.94782298  0.84193765  0.70927827  1
  H  H563  1  0.83683819  0.87376217  0.66695870  1
  O  O564  1  0.93133932  0.78900375  0.53352807  1
  O  O565  1  0.72908794  0.86452759  0.60438342  1
  C  C566  1  0.94575509  0.58752573  0.51070056  1
  O  O567  1  0.70972738  0.91548759  0.71600192  1
  C  C568  1  0.70363430  0.82847219  0.57900405  1
  H  H569  1  0.63166523  0.84416209  0.67815543  1
  C  C570  1  0.52710035  0.79152060  0.68035397  1
  C  C571  1  0.59702068  0.81325223  0.65678876  1
  C  C572  1  0.71341784  0.56670683  0.52417379  1
  O  O573  1  0.97438866  0.86115829  0.61400332  1
  C  C574  1  0.52593993  0.73195678  0.60509515  1
  H  H575  1  0.51461899  0.88521460  0.55117245  1
  C  C576  1  0.69187873  0.61533959  0.50247198  1
  C  C577  1  0.50454658  0.80430523  0.73862323  1
  O  O578  1  0.50540394  0.67416309  0.53241009  1
  C  C579  1  0.91367757  0.68294930  0.50122259  1
  H  H580  1  0.71708459  0.66230924  0.92978703  1
  C  C581  1  0.70192876  0.63706371  0.89374853  1
  C  C582  1  0.67724769  0.65790125  0.84193608  1
  O  O583  1  0.66931418  0.74013345  0.88328986  1
  C  C584  1  0.65494261  0.71571127  0.84317796  1
  C  C585  1  0.72023796  0.58400162  0.89852811  1
  C  C586  1  0.76245311  0.56359556  0.94981911  1
  C  C587  1  0.68785432  0.57081458  0.80424303  1
  C  C588  1  0.66854597  0.62434558  0.79701907  1
  C  C589  1  0.71005810  0.54889251  0.85517102  1
  O  O590  1  0.58048797  0.80933954  0.98612590  1
  O  O591  1  0.77431137  0.98894102  0.77561220  1
  O  O592  1  0.77453100  0.59665877  0.98746724  1
  O  O593  1  0.62372986  0.73883269  0.79830355  1
  H  H594  1  0.63954291  0.63728831  0.75802463  1
  O  O595  1  0.51407085  0.61132821  0.99533378  1
  O  O596  1  0.50173517  0.50651264  0.96349499  1
  O  O597  1  0.79843570  0.52080137  0.95111474  1
  O  O598  1  0.99032305  0.96191626  0.89864621  1
  C  C599  1  0.93668891  0.83236287  0.80602912  1
  O  O600  1  0.93435425  0.83609291  0.90027139  1
  C  C601  1  0.75055299  0.98157809  0.94637868  1
  Cu  Cu602  1  0.64708707  0.80816614  0.79288539  1
  C  C603  1  0.97791403  0.82237705  0.85932350  1
  Cu  Cu604  1  0.56487877  0.87031242  0.93678361  1
  O  O605  1  0.69075091  0.87294064  0.79520936  1
  H  H606  1  0.71552385  0.95419694  0.86438131  1
  O  O607  1  0.66863651  0.90457164  0.93521266  1
  C  C608  1  0.69624684  0.93953351  0.96801727  1
  H  H609  1  0.81845744  0.85211160  0.84334321  1
  Cu  Cu610  1  0.93246379  0.90333136  0.92637354  1
  C  C611  1  0.85309573  0.84819003  0.80447579  1
  Cu  Cu612  1  0.88856781  0.51372716  0.90353771  1
  O  O613  1  0.54803517  0.83481083  0.76747605  1
  H  H614  1  0.72089428  0.50601549  0.85885997  1
  C  C615  1  0.74921954  0.98537295  0.88810814  1
  H  H616  1  0.54743636  0.70961986  0.99725545  1
  C  C617  1  0.98375670  0.82362207  0.75943189  1
  C  C618  1  0.67888181  0.53452889  0.75709946  1
  O  O619  1  0.60312464  0.98406171  0.76081812  1
  O  O620  1  0.97645261  0.51781281  0.86113608  1
  O  O621  1  0.88925506  0.91442105  0.99737725  1
  C  C622  1  0.81960601  0.86550583  0.75517127  1
  C  C623  1  0.73746441  0.88631712  0.75404720  1
