# generated using pymatgen
data_Zn3H14(C2O)16
_symmetry_space_group_name_H-M   'P 1'
_cell_length_a   12.25708340
_cell_length_b   19.43438863
_cell_length_c   18.12611160
_cell_angle_alpha   90.00000000
_cell_angle_beta   90.00000000
_cell_angle_gamma   90.00000000
_symmetry_Int_Tables_number   1
_chemical_formula_structural   Zn3H14(C2O)16
_chemical_formula_sum   'Zn12 H56 C128 O64'
_cell_volume   4317.80150886
_cell_formula_units_Z   4
loop_
 _symmetry_equiv_pos_site_id
 _symmetry_equiv_pos_as_xyz
  1  'x, y, z'
loop_
 _atom_site_type_symbol
 _atom_site_label
 _atom_site_symmetry_multiplicity
 _atom_site_fract_x
 _atom_site_fract_y
 _atom_site_fract_z
 _atom_site_occupancy
  O  O0  1  0.17482950  0.08208563  0.34607413  1
  C  C1  1  0.27621014  0.05986164  0.11675632  1
  C  C2  1  0.24500542  0.05876208  0.19250337  1
  C  C3  1  0.07597825  0.05460068  0.09110256  1
  Zn  Zn4  1  0.12285107  0.10939913  0.45310773  1
  C  C5  1  0.39482327  0.12656960  0.45763682  1
  C  C6  1  0.10947158  0.06066481  0.29827002  1
  C  C7  1  0.18573994  0.05472761  0.06705473  1
  C  C8  1  0.13722599  0.05493428  0.21569327  1
  O  O9  1  0.37529617  0.06063621  0.09779357  1
  C  C10  1  0.05304811  0.04807637  0.16743463  1
  O  O11  1  0.35937907  0.20694419  0.04243997  1
  C  C12  1  0.39633444  0.02300827  0.37445254  1
  O  O13  1  0.42363938  0.18505678  0.48333197  1
  H  H14  1  0.31348721  0.05924187  0.23100293  1
  C  C15  1  0.45009469  0.08105716  0.40370499  1
  Zn  Zn16  1  0.44768718  0.11494665  0.01424834  1
  O  O17  1  0.30187187  0.10291069  0.47846642  1
  H  H18  1  0.31355496  0.00749581  0.38907855  1
  O  O19  1  0.01557490  0.03997708  0.31325979  1
  O  O20  1  0.05041696  0.01497917  0.49110709  1
  H  H21  1  0.20457274  0.04114318  0.00948310  1
  C  C22  1  0.31010924  0.23574393  0.98573537  1
  C  C23  1  0.39248062  0.05442456  0.62004214  1
  H  H24  1  0.11548304  0.10106521  0.94792810  1
  H  H25  1  0.16667078  0.16050937  0.57684082  1
  C  C26  1  0.30977799  0.10434176  0.65802602  1
  O  O27  1  0.22838154  0.07462007  0.68213263  1
  Zn  Zn28  1  0.30442974  0.22818028  0.55648138  1
  O  O29  1  0.40532997  0.07734522  0.90404266  1
  O  O30  1  0.08426049  0.14695638  0.82842743  1
  O  O31  1  0.31932303  0.20888080  0.92696040  1
  Zn  Zn32  1  0.16512822  0.05338301  0.78808659  1
  O  O33  1  0.32072507  0.16646854  0.65567099  1
  O  O34  1  0.12129547  0.18037974  0.53727570  1
  C  C35  1  0.02624839  0.09544409  0.96349290  1
  O  O36  1  0.25077165  0.02060458  0.88485845  1
  C  C37  1  0.35334794  0.02344408  0.88925941  1
  C  C38  1  0.49671631  0.07574907  0.60599096  1
  C  C39  1  0.18589892  0.41099953  0.19533527  1
  C  C40  1  0.46088705  0.44941551  0.38167614  1
  C  C41  1  0.18840860  0.39973542  0.05829965  1
  H  H42  1  0.30429857  0.32179846  0.09736831  1
  H  H43  1  0.16759466  0.41018297  0.43067192  1
  C  C44  1  0.19913141  0.44321152  0.12861634  1
  C  C45  1  0.24895367  0.33765846  0.05460223  1
  C  C46  1  0.18484017  0.45193316  0.26112942  1
  C  C47  1  0.17002316  0.40660460  0.32670202  1
  H  H48  1  0.17617973  0.35676417  0.19832269  1
  O  O49  1  0.15244808  0.44876505  0.40076590  1
  O  O50  1  0.16710362  0.34719807  0.33030364  1
  H  H51  1  0.45006727  0.48763786  0.01243790  1
  O  O52  1  0.47197338  0.39054664  0.38677432  1
  H  H53  1  0.48943217  0.40107837  0.09218813  1
  H  H54  1  0.09234166  0.45695385  0.62008384  1
  H  H55  1  0.45842238  0.31837914  0.85995076  1
  C  C56  1  0.18406380  0.35750788  0.53768924  1
  C  C57  1  0.42918515  0.36826680  0.87616814  1
  C  C58  1  0.12112444  0.38132984  0.93329498  1
  C  C59  1  0.28986253  0.35938805  0.77503927  1
  C  C60  1  0.23907401  0.41970542  0.57014319  1
  H  H61  1  0.17741582  0.29056300  0.87525785  1
  C  C62  1  0.34019492  0.39731282  0.83633675  1
  O  O63  1  0.04438654  0.35907863  0.81400993  1
  C  C64  1  0.17724977  0.46672761  0.60928149  1
  C  C65  1  0.18067525  0.32119192  0.92608356  1
  C  C66  1  0.05190776  0.39902804  0.86615469  1
  C  C67  1  0.35040074  0.42914159  0.55820292  1
  H  H68  1  0.39766118  0.39237932  0.52229740  1
  O  O69  1  0.08553301  0.35145195  0.54269001  1
  O  O70  1  0.25286176  0.32818125  0.72671311  1
  C  C71  1  0.29480916  0.46352115  0.85746265  1
  H  H72  1  0.23261454  0.48809335  0.82578504  1
  C  C73  1  0.42142453  0.46563858  0.96007817  1
  O  O74  1  0.24403421  0.31506184  0.50071892  1
  H  H75  1  0.05817505  0.30790934  0.69981829  1
  C  C76  1  0.40444058  0.48666557  0.59007312  1
  C  C77  1  0.46826175  0.40396811  0.93728943  1
  C  C78  1  0.24391660  0.30269474  0.98723441  1
  O  O79  1  0.00135441  0.45460989  0.87191390  1
  C  C80  1  0.33532887  0.49279934  0.91880609  1
  C  C81  1  0.13085863  0.42249284  0.99509205  1
  H  H82  1  0.09498525  0.47302366  0.99008311  1
  C  C83  1  0.20339962  0.64077814  0.42886296  1
  H  H84  1  0.18448587  0.55699049  0.30852199  1
  C  C85  1  0.31540069  0.61656214  0.39852768  1
  H  H86  1  0.29773185  0.52060203  0.45094146  1
  H  H87  1  0.21734738  0.53864899  0.07202930  1
  C  C88  1  0.37854913  0.66569947  0.35844352  1
  O  O89  1  0.15906072  0.69297303  0.40598193  1
  Zn  Zn90  1  0.35678554  0.69811437  0.04099032  1
  C  C91  1  0.20972480  0.51487920  0.12629270  1
  O  O92  1  0.15373654  0.60488201  0.47824328  1
  C  C93  1  0.20302494  0.55327774  0.19150197  1
  O  O94  1  0.23995579  0.65553918  0.11711190  1
  O  O95  1  0.20415165  0.66447646  0.23561407  1
  C  C96  1  0.21787216  0.62907326  0.17908737  1
  Zn  Zn97  1  0.05353291  0.67872878  0.29105550  1
  C  C98  1  0.35420585  0.55151088  0.42039589  1
  C  C99  1  0.19062896  0.52443249  0.26015059  1
  H  H100  1  0.46616059  0.65855455  0.17651753  1
  C  C101  1  0.44325446  0.52277842  0.37726452  1
  C  C102  1  0.46965265  0.64030519  0.32274471  1
  H  H103  1  0.36001910  0.71989133  0.35427845  1
  Zn  Zn104  1  0.02762144  0.53639573  0.43673535  1
  O  O105  1  0.33702733  0.58529413  0.00530953  1
  C  C106  1  0.23124102  0.52148074  0.64406888  1
  O  O107  1  0.06157257  0.54934493  0.69731103  1
  O  O108  1  0.20311441  0.61218952  0.72933985  1
  C  C109  1  0.34371329  0.52945733  0.63427797  1
  Zn  Zn110  1  0.16947924  0.66287356  0.83763981  1
  O  O111  1  0.20479018  0.57962334  0.91967532  1
  C  C112  1  0.29028001  0.55892366  0.95014150  1
  C  C113  1  0.16017721  0.56582554  0.69194994  1
  O  O114  1  0.39198883  0.71409671  0.91837266  1
  H  H115  1  0.38344004  0.57448208  0.65910065  1
  O  O116  1  0.01095623  0.64170586  0.82508350  1
  H  H117  1  0.01110723  0.65254155  0.77249939  1
  C  C118  1  0.21266876  0.86646262  0.25969384  1
  O  O119  1  0.06259306  0.78947710  0.25046420  1
  C  C120  1  0.10159484  0.84412978  0.27623734  1
  C  C121  1  0.40779728  0.84093647  0.09630945  1
  O  O122  1  0.05384073  0.87786082  0.32445251  1
  C  C123  1  0.28205415  0.90640048  0.30226326  1
  H  H124  1  0.25427970  0.92103528  0.35835998  1
  H  H125  1  0.19999730  0.81835847  0.15341395  1
  C  C126  1  0.38024472  0.93669126  0.27544287  1
  C  C127  1  0.35991670  0.86584264  0.16838187  1
  C  C128  1  0.25629821  0.84382838  0.19234417  1
  C  C129  1  0.41860430  0.91537861  0.20698605  1
  O  O130  1  0.34629378  0.80032519  0.05583020  1
  C  C131  1  0.44957569  0.98714306  0.31691247  1
  O  O132  1  0.49163805  0.86459009  0.07517675  1
  O  O133  1  0.38762805  0.83964701  0.47927461  1
  H  H134  1  0.48775375  0.94226090  0.18084963  1
  O  O135  1  0.04349498  0.97765915  0.80149126  1
  H  H136  1  0.26387944  0.89489178  0.87422486  1
  C  C137  1  0.41178192  0.95579770  0.89228204  1
  C  C138  1  0.36143863  0.99065010  0.59097000  1
  C  C139  1  0.35168477  0.89411943  0.88487610  1
  C  C140  1  0.40385321  0.83202590  0.89401350  1
  H  H141  1  0.28074424  0.97054134  0.60626955  1
  C  C142  1  0.43670022  0.95349884  0.54498971  1
  O  O143  1  0.24964835  0.75796742  0.86370881  1
  H  H144  1  0.02331640  0.92268206  0.91921082  1
  C  C145  1  0.34581976  0.76359894  0.88915736  1
  C  C146  1  0.41670579  0.89060675  0.50665481  1
  O  O147  1  0.64709934  0.05524148  0.07273039  1
  H  H148  1  0.59340197  0.14314192  0.40339193  1
  C  C149  1  0.73542856  0.05785206  0.32285275  1
  C  C150  1  0.55593479  0.09695750  0.38160153  1
  C  C151  1  0.61340138  0.05103544  0.33561294  1
  O  O152  1  0.78546432  0.10962831  0.34241742  1
  O  O153  1  0.78187454  0.00803441  0.29144008  1
  C  C154  1  0.88096678  0.06154817  0.05258267  1
  H  H155  1  0.86349805  0.03348425  0.10395817  1
  H  H156  1  0.96940691  0.04124581  0.18775697  1
  C  C157  1  0.99090514  0.06986624  0.03333795  1
  C  C158  1  0.94970328  0.00111409  0.48847355  1
  C  C159  1  0.68214739  0.09032063  0.02258390  1
  C  C160  1  0.80350727  0.09196479  0.00504091  1
  C  C161  1  0.94762621  0.12008767  0.91590907  1
  H  H162  1  0.77943228  0.14011887  0.89843682  1
  C  C163  1  0.69802640  0.14772114  0.55554477  1
  H  H164  1  0.62571228  0.18426966  0.56379231  1
  C  C165  1  0.81917356  0.24340168  0.57821946  1
  C  C166  1  0.57222638  0.04548805  0.55659494  1
  C  C167  1  0.89480725  0.12296600  0.53500900  1
  O  O168  1  0.91267562  0.17364956  0.80198389  1
  C  C169  1  0.68210908  0.07612508  0.54104250  1
  C  C170  1  0.83885572  0.12085606  0.93874110  1
  O  O171  1  0.61386860  0.12439883  0.98218018  1
  H  H172  1  0.98145766  0.14004078  0.54058304  1
  C  C173  1  0.80899291  0.16828758  0.55575333  1
  C  C174  1  0.86811155  0.05641978  0.51162864  1
  C  C175  1  0.76268345  0.03074324  0.51285920  1
  H  H176  1  0.52336233  0.12324732  0.63171518  1
  C  C177  1  0.98418065  0.14626243  0.84119069  1
  H  H178  1  0.57640539  0.00294519  0.89780190  1
  C  C179  1  0.55615941  0.38053119  0.06081860  1
  C  C180  1  0.65184208  0.35915141  0.09940378  1
  C  C181  1  0.74318518  0.33021445  0.06826880  1
  C  C182  1  0.64681071  0.37111341  0.18198224  1
  O  O183  1  0.72172292  0.35845000  0.22071118  1
  H  H184  1  0.81457123  0.31695586  0.10071824  1
  H  H185  1  0.55573917  0.38133904  0.26401239  1
  O  O186  1  0.54505699  0.39250345  0.21122566  1
  C  C187  1  0.90238676  0.48492179  0.08247225  1
  H  H188  1  0.65607481  0.34415888  0.88739913  1
  O  O189  1  0.85706608  0.47713335  0.74552212  1
  C  C190  1  0.65182534  0.34627877  0.94708483  1
  C  C191  1  0.56119938  0.37624640  0.98444172  1
  C  C192  1  0.73943952  0.32711788  0.99047933  1
  O  O193  1  0.76114085  0.29086095  0.58972805  1
  O  O194  1  0.80689463  0.27877836  0.87810697  1
  C  C195  1  0.83123164  0.29742905  0.94440747  1
  Zn  Zn196  1  0.92002802  0.28154730  0.78801590  1
  C  C197  1  0.75126953  0.47281956  0.73889189  1
  C  C198  1  0.69844867  0.47974058  0.66359227  1
  C  C199  1  0.58557785  0.48144578  0.65922606  1
  H  H200  1  0.85368275  0.48554063  0.60612552  1
  O  O201  1  0.69358020  0.47007277  0.79120532  1
  H  H202  1  0.53721604  0.46988169  0.70911709  1
  Zn  Zn203  1  0.99209116  0.25124183  0.57089991  1
  O  O204  1  0.92283277  0.28867240  0.96889713  1
  O  O205  1  0.99519693  0.28253962  0.69069294  1
  C  C206  1  0.76349104  0.48694289  0.60054091  1
  C  C207  1  0.53096265  0.49550640  0.59150661  1
  C  C208  1  0.70873377  0.49677588  0.53508778  1
  O  O209  1  0.93202583  0.67406141  0.18891521  1
  C  C210  1  0.54409766  0.69442481  0.28467389  1
  C  C211  1  0.60519291  0.72778341  0.16525985  1
  H  H212  1  0.57869247  0.55499710  0.30373409  1
  C  C213  1  0.78004238  0.50942241  0.46890806  1
  H  H214  1  0.97432432  0.64204418  0.16051801  1
  O  O215  1  0.92424945  0.53757351  0.08825659  1
  C  C216  1  0.60092643  0.70647223  0.08396567  1
  H  H217  1  0.96948733  0.71772831  0.18593908  1
  O  O218  1  0.75439991  0.52151251  0.40648991  1
  H  H219  1  0.91934008  0.57496130  0.34595747  1
  C  C220  1  0.52654706  0.69136335  0.20680446  1
  O  O221  1  0.65425110  0.74019824  0.03949932  1
  O  O222  1  0.52942168  0.66422701  0.06247068  1
  O  O223  1  0.88017394  0.50207016  0.48797317  1
  O  O224  1  0.99460763  0.58657222  0.34256872  1
  H  H225  1  0.55239088  0.50142283  0.47484867  1
  C  C226  1  0.50076395  0.57054580  0.33017955  1
  H  H227  1  0.61112100  0.74993143  0.37644669  1
  C  C228  1  0.61210792  0.74648229  0.31528286  1
  Zn  Zn229  1  0.95765460  0.54240465  0.80286770  1
  C  C230  1  0.59387083  0.50031730  0.52934524  1
  O  O231  1  0.81826876  0.86618163  0.25225109  1
  Zn  Zn232  1  0.91697160  0.94048741  0.32538745  1
  C  C233  1  0.67575634  0.77683506  0.19202628  1
  C  C234  1  0.76208856  0.83475827  0.29955931  1
  H  H235  1  0.73573997  0.80605435  0.15845581  1
  H  H236  1  0.71357414  0.83467813  0.00247146  1
  H  H237  1  0.59975205  0.95432583  0.49123319  1
  O  O238  1  0.77513932  0.84766857  0.36612448  1
  O  O239  1  0.91377282  0.94517620  0.46822477  1
  C  C240  1  0.67804908  0.78406693  0.26927008  1
  H  H241  1  0.60945455  0.96523553  0.26251052  1
  O  O242  1  0.99513465  0.82973911  0.07795959  1
  C  C243  1  0.93920255  0.84828932  0.02902473  1
  C  C244  1  0.56265712  0.99660843  0.30166901  1
  H  H245  1  0.74558521  0.97946873  0.49431446  1
  H  H246  1  0.71767715  0.96901583  0.80653296  1
  C  C247  1  0.75833135  0.87066779  0.96455047  1
  C  C248  1  0.87825069  0.88017146  0.96926511  1
  C  C249  1  0.70127727  0.90590664  0.91126923  1
  C  C250  1  0.52535090  0.95689906  0.89835795  1
  C  C251  1  0.87382801  0.94578255  0.85890610  1
  H  H252  1  0.55935323  0.78391841  0.92242765  1
  C  C253  1  0.57560740  0.89339635  0.90847959  1
  C  C254  1  0.93501590  0.91618508  0.91383863  1
  C  C255  1  0.54280947  0.98191229  0.52754504  1
  C  C256  1  0.76388303  0.94223676  0.85549148  1
  O  O257  1  0.88951175  0.99196669  0.73925874  1
  C  C258  1  0.93902510  0.97614440  0.79353848  1
  C  C259  1  0.51632706  0.83275470  0.90842927  1
