# generated using pymatgen
data_Zn5H18(C24O13)2
_symmetry_space_group_name_H-M   'P 1'
_cell_length_a   12.14779951
_cell_length_b   27.65559132
_cell_length_c   19.24134626
_cell_angle_alpha   90.00000000
_cell_angle_beta   90.00000000
_cell_angle_gamma   90.00000000
_symmetry_Int_Tables_number   1
_chemical_formula_structural   Zn5H18(C24O13)2
_chemical_formula_sum   'Zn20 H72 C192 O104'
_cell_volume   6464.21837496
_cell_formula_units_Z   4
loop_
 _symmetry_equiv_pos_site_id
 _symmetry_equiv_pos_as_xyz
  1  'x, y, z'
loop_
 _atom_site_type_symbol
 _atom_site_label
 _atom_site_symmetry_multiplicity
 _atom_site_fract_x
 _atom_site_fract_y
 _atom_site_fract_z
 _atom_site_occupancy
  C  C0  1  0.37518742  0.10332599  0.40676704  1
  O  O1  1  0.36427351  0.12184200  0.20557899  1
  O  O2  1  0.32615741  0.00355921  0.23054037  1
  O  O3  1  0.28488342  0.24239455  0.19347111  1
  C  C4  1  0.35029000  0.07597693  0.34798102  1
  Zn  Zn5  1  0.32413646  0.03222108  0.12460735  1
  O  O6  1  0.41619776  0.09333430  0.10823605  1
  H  H7  1  0.27173002  0.08008333  0.32031097  1
  C  C8  1  0.42981039  0.04304233  0.32811873  1
  O  O9  1  0.17285478  0.02268503  0.07310372  1
  C  C10  1  0.29721459  0.14120527  0.44265982  1
  O  O11  1  0.20954570  0.14707294  0.41651274  1
  O  O12  1  0.03561319  0.12155552  0.14410012  1
  C  C13  1  0.43656391  0.11764901  0.16465907  1
  C  C14  1  0.47930944  0.09816291  0.43750517  1
  H  H15  1  0.06611626  0.13512439  0.04291582  1
  C  C16  1  0.40832289  0.00169873  0.27022063  1
  H  H17  1  0.29233896  0.21114387  0.17224915  1
  O  O18  1  0.24707247  0.10907110  0.96113554  1
  H  H19  1  0.36541333  0.23493318  0.58828060  1
  C  C20  1  0.26179799  0.17144465  0.67722976  1
  O  O21  1  0.19028692  0.19556516  0.64695310  1
  C  C22  1  0.38115902  0.17360948  0.65502283  1
  O  O23  1  0.24138571  0.14018146  0.72280619  1
  H  H24  1  0.23047171  0.02754539  0.93548532  1
  C  C25  1  0.42058257  0.20673197  0.60671905  1
  C  C26  1  0.45302754  0.13789400  0.68161322  1
  Zn  Zn27  1  0.16942993  0.14653064  0.82996103  1
  Zn  Zn28  1  0.15596172  0.18730461  0.54183998  1
  C  C29  1  0.06667017  0.15445028  0.93157669  1
  C  C30  1  0.17239274  0.12843126  0.93293345  1
  H  H31  1  0.41469158  0.10916170  0.71652862  1
  O  O32  1  0.41571134  0.19697018  0.84896744  1
  O  O33  1  0.00103446  0.13938163  0.53837607  1
  C  C34  1  0.45710580  0.20712826  0.90276134  1
  C  C35  1  0.01806125  0.15245288  0.99747848  1
  O  O36  1  0.31143916  0.16036250  0.50248203  1
  O  O37  1  0.48879288  0.21815835  0.95623846  1
  C  C38  1  0.17276015  0.31761895  0.33240295  1
  C  C39  1  0.29355221  0.33547554  0.32353021  1
  H  H40  1  0.11554594  0.32987617  0.23318893  1
  O  O41  1  0.32092964  0.34877734  0.26729892  1
  C  C42  1  0.14950840  0.30409767  0.40140320  1
  C  C43  1  0.08732897  0.31903418  0.28346995  1
  C  C44  1  0.04270481  0.29453558  0.42073864  1
  O  O45  1  0.36257099  0.33482291  0.37476766  1
  C  C46  1  0.29236777  0.47326867  0.43758930  1
  C  C47  1  0.02915968  0.27657563  0.49322863  1
  C  C48  1  0.14696209  0.42116530  0.47445115  1
  H  H49  1  0.21521991  0.30141363  0.44203090  1
  C  C50  1  0.07147059  0.44369612  0.42914996  1
  H  H51  1  0.37756245  0.48688817  0.44522023  1
  C  C52  1  0.11142698  0.48003496  0.38402906  1
  C  C53  1  0.25632399  0.43493889  0.47972758  1
  H  H54  1  0.01034921  0.32181175  0.15076473  1
  H  H55  1  0.36170364  0.25439024  0.19691239  1
  C  C56  1  0.22074914  0.49464281  0.39055546  1
  H  H57  1  0.05758127  0.49609127  0.34499550  1
  C  C58  1  0.12272503  0.47154273  0.79166646  1
  O  O59  1  0.44469486  0.29649167  0.69458448  1
  O  O60  1  0.33561407  0.33140290  0.76876688  1
  C  C61  1  0.42867394  0.31689338  0.75246019  1
  Zn  Zn62  1  0.45820937  0.33785342  0.60147588  1
  O  O63  1  0.42596704  0.42989069  0.53129872  1
  C  C64  1  0.23084379  0.47425453  0.75422793  1
  C  C65  1  0.33374771  0.45621302  0.74178381  1
  C  C66  1  0.10339806  0.43985162  0.85055228  1
  O  O67  1  0.31770591  0.36979210  0.55958838  1
  C  C68  1  0.03093539  0.43330196  0.90577406  1
  Zn  Zn69  1  0.25531422  0.40650031  0.82221263  1
  H  H70  1  0.44882410  0.37397840  0.86452968  1
  H  H71  1  0.04300457  0.40768477  0.94889205  1
  O  O72  1  0.42702332  0.45527205  0.71546788  1
  C  C73  1  0.33365884  0.40811603  0.52638502  1
  O  O74  1  0.11837041  0.26562076  0.52572355  1
  C  C75  1  0.34190075  0.42527817  0.97027052  1
  O  O76  1  0.35503860  0.38475192  0.95169282  1
  H  H77  1  0.11567491  0.39164626  0.50964092  1
  O  O78  1  0.49912501  0.27774752  0.52972810  1
  O  O79  1  0.32735169  0.46483479  0.98695525  1
  O  O80  1  0.14206671  0.66123167  0.21464833  1
  Zn  Zn81  1  0.16703646  0.63473474  0.32011535  1
  O  O82  1  0.36279677  0.54584725  0.35031512  1
  C  C83  1  0.26480210  0.53652219  0.34679296  1
  O  O84  1  0.09302118  0.62789078  0.41853828  1
  C  C85  1  0.28040034  0.70280107  0.13846527  1
  H  H86  1  0.28219561  0.66470189  0.15654796  1
  C  C87  1  0.19291245  0.73137651  0.15448519  1
  H  H88  1  0.21268538  0.70076067  0.46499575  1
  C  C89  1  0.37322935  0.72563154  0.10443406  1
  C  C90  1  0.34244494  0.71193473  0.30168827  1
  C  C91  1  0.11428362  0.70355145  0.19502393  1
  C  C92  1  0.47303962  0.69545760  0.08966198  1
  O  O93  1  0.41528336  0.68690723  0.27910489  1
  O  O94  1  0.26911210  0.69585815  0.34190136  1
  O  O95  1  0.20256075  0.55962136  0.30548208  1
  C  C96  1  0.12346619  0.60799987  0.47560326  1
  C  C97  1  0.26582126  0.67393434  0.49349627  1
  O  O98  1  0.02120505  0.71896558  0.20524593  1
  C  C99  1  0.42918044  0.68380023  0.73785218  1
  H  H100  1  0.28179491  0.72564939  0.76371607  1
  C  C101  1  0.35719232  0.72269733  0.73395022  1
  C  C102  1  0.45365047  0.56505392  0.61426869  1
  C  C103  1  0.29847946  0.59119238  0.53819186  1
  O  O104  1  0.42324087  0.73294930  0.93162828  1
  O  O105  1  0.41595511  0.52401511  0.60819231  1
  C  C106  1  0.44067303  0.65010038  0.55145235  1
  C  C107  1  0.39767347  0.60411349  0.56858321  1
  C  C108  1  0.37079870  0.68550089  0.52044485  1
  H  H109  1  0.26190113  0.55452901  0.54041859  1
  C  C110  1  0.38317291  0.73985479  0.51577975  1
  C  C111  1  0.23644683  0.62563050  0.50303881  1
  Zn  Zn112  1  0.49915925  0.62226086  0.76590483  1
  C  C113  1  0.49507579  0.74664311  0.89339876  1
  O  O114  1  0.45804708  0.58911893  0.92814309  1
  H  H115  1  0.06052980  0.50071812  0.78048383  1
  O  O116  1  0.06830843  0.57767360  0.50359112  1
  C  C117  1  0.28388374  0.85384106  0.07135255  1
  C  C118  1  0.32226358  0.86139421  0.24599871  1
  O  O119  1  0.05745348  0.96269042  0.08580900  1
  C  C120  1  0.12438864  0.86725446  0.29100214  1
  O  O121  1  0.21697648  0.88419078  0.09795020  1
  C  C122  1  0.37416145  0.77522828  0.08257025  1
  O  O123  1  0.09740052  0.80665624  0.14110452  1
  C  C124  1  0.33072606  0.76727951  0.28490257  1
  C  C125  1  0.23554562  0.84107040  0.28404669  1
  C  C126  1  0.18609835  0.78235266  0.13045697  1
  C  C127  1  0.28063617  0.80220507  0.09844637  1
  O  O128  1  0.34363051  0.86619074  0.02479035  1
  C  C129  1  0.41774503  0.78400519  0.24928612  1
  H  H130  1  0.44290732  0.79298821  0.05375798  1
  H  H131  1  0.31363546  0.89900388  0.22753306  1
  Zn  Zn132  1  0.06304725  0.89087516  0.14265747  1
  C  C133  1  0.24022166  0.79389862  0.30888167  1
  C  C134  1  0.41258704  0.83315640  0.22543806  1
  O  O135  1  0.18941412  0.88625597  0.46907204  1
  H  H136  1  0.37910873  0.90609003  0.14193130  1
  H  H137  1  0.17209879  0.77966165  0.34179311  1
  C  C138  1  0.10846617  0.99023042  0.04910432  1
  O  O139  1  0.10630886  0.90427837  0.25654663  1
  O  O140  1  0.48175091  0.97124330  0.26596764  1
  C  C141  1  0.46816828  0.89619255  0.14322143  1
  Zn  Zn142  1  0.01643839  0.88569868  0.42706956  1
  O  O143  1  0.42809426  0.98556129  0.06430648  1
  O  O144  1  0.05026415  0.85229784  0.33138254  1
  H  H145  1  0.48507860  0.76185123  0.23934427  1
  O  O146  1  0.00782955  0.96470727  0.45761880  1
  H  H147  1  0.40778109  0.87900766  0.49328283  1
  O  O148  1  0.10650289  0.82066902  0.48918648  1
  C  C149  1  0.19360958  0.84162334  0.48344681  1
  C  C150  1  0.29747592  0.81601426  0.50053030  1
  H  H151  1  0.15183768  0.92489491  0.65858865  1
  C  C152  1  0.30835538  0.88997978  0.65696820  1
  H  H153  1  0.46010627  0.84789885  0.65169416  1
  H  H154  1  0.17181003  0.76765201  0.69889810  1
  O  O155  1  0.31260162  0.97549830  0.63957898  1
  C  C156  1  0.19550399  0.89032281  0.66531503  1
  C  C157  1  0.40302057  0.82404654  0.88458684  1
  C  C158  1  0.40056707  0.76094293  0.69319080  1
  H  H159  1  0.33418402  0.81231204  0.92041175  1
  C  C160  1  0.21116991  0.80230907  0.69048087  1
  C  C161  1  0.40400861  0.87302395  0.86498273  1
  C  C162  1  0.31539522  0.90798066  0.88802917  1
  C  C163  1  0.00351365  0.91275315  0.89000893  1
  H  H164  1  0.20679444  0.75085019  0.51337291  1
  C  C165  1  0.32586554  0.80376494  0.68061178  1
  C  C166  1  0.37315957  0.84858369  0.66037044  1
  C  C167  1  0.20851402  0.98808751  0.92998121  1
  C  C168  1  0.15194791  0.84504850  0.68607526  1
  C  C169  1  0.36350387  0.93878238  0.64135772  1
  C  C170  1  0.28649604  0.95462036  0.89558819  1
  Zn  Zn171  1  0.16297627  0.90674025  0.94311822  1
  C  C172  1  0.00337230  0.86358442  0.92952581  1
  C  C173  1  0.02932801  0.84509295  0.69500017  1
  C  C174  1  0.11552729  0.97329860  0.97439065  1
  C  C175  1  0.01400660  0.95165252  0.95207230  1
  O  O176  1  0.46893580  0.93960928  0.63447036  1
  C  C177  1  0.28536370  0.76584128  0.50627017  1
  C  C178  1  0.49484104  0.81349520  0.50658049  1
  C  C179  1  0.48755879  0.76286216  0.51096645  1
  C  C180  1  0.49117375  0.79671164  0.86365840  1
  H  H181  1  0.48412044  0.92571514  0.79869035  1
  C  C182  1  0.40122248  0.84013406  0.50151317  1
  C  C183  1  0.48736320  0.88983960  0.81693487  1
  C  C184  1  0.67618407  0.16234920  0.26835114  1
  C  C185  1  0.53669888  0.04122509  0.35421276  1
  H  H186  1  0.50673487  0.14613832  0.28523792  1
  C  C187  1  0.68226461  0.06171490  0.43918487  1
  C  C188  1  0.84671455  0.01602630  0.45108448  1
  C  C189  1  0.76117551  0.16910653  0.22193004  1
  C  C190  1  0.68655603  0.17316999  0.34776965  1
  O  O191  1  0.60325061  0.17288346  0.38026060  1
  C  C192  1  0.73515784  0.10062547  0.47380901  1
  H  H193  1  0.84333802  0.18779971  0.23449650  1
  C  C194  1  0.57138186  0.14927673  0.24778318  1
  Zn  Zn195  1  0.79761528  0.23148396  0.45870339  1
  C  C196  1  0.56615708  0.06867427  0.41232993  1
  O  O197  1  0.77780722  0.18667321  0.37153231  1
  H  H198  1  0.59778957  0.01659147  0.33410367  1
  H  H199  1  0.91899101  0.09014292  0.17508083  1
  C  C200  1  0.84499033  0.15192378  0.11186500  1
  C  C201  1  0.64085553  0.13209248  0.13158983  1
  C  C202  1  0.55630416  0.13404453  0.17868829  1
  H  H203  1  0.63388317  0.10948128  0.08445739  1
  C  C204  1  0.74020530  0.15423663  0.15280189  1
  C  C205  1  0.74188522  0.01892424  0.42369573  1
  H  H206  1  0.68886308  0.13488381  0.48278039  1
  H  H207  1  0.76438561  0.19949112  0.03972252  1
  C  C208  1  0.83580928  0.17810908  0.04875051  1
  C  C209  1  0.93796044  0.12172276  0.13914742  1
  O  O210  1  0.80023598  0.04114647  0.29181320  1
  C  C211  1  0.84988172  0.02287677  0.24731367  1
  O  O212  1  0.90369197  0.00474399  0.20488767  1
  C  C213  1  0.84509742  0.09645926  0.49460231  1
  C  C214  1  0.90235334  0.05216357  0.48576627  1
  H  H215  1  0.50049413  0.11961747  0.48559793  1
  H  H216  1  0.61725659  0.13306302  0.79477594  1
  O  O217  1  0.78714404  0.04253183  0.91500190  1
  C  C218  1  0.63959713  0.10016658  0.69350924  1
  C  C219  1  0.68836100  0.06230543  0.65503910  1
  O  O220  1  0.65475084  0.09948211  0.90063895  1
  C  C221  1  0.72353300  0.07024547  0.79541478  1
  H  H222  1  0.67631136  0.06050016  0.59918458  1
  O  O223  1  0.98384491  0.18609712  0.88120155  1
  C  C224  1  0.91535027  0.17553508  0.99535097  1
  C  C225  1  0.65195055  0.10304612  0.76636000  1
  C  C226  1  0.76014767  0.03297369  0.68792356  1
  C  C227  1  0.53274280  0.20602125  0.58799476  1
  C  C228  1  0.60649468  0.17471127  0.61611532  1
  O  O229  1  0.84098022  0.17523337  0.53669006  1
  H  H230  1  0.69498494  0.17803327  0.60805020  1
  C  C231  1  0.79283233  0.03468767  0.76159458  1
  C  C232  1  0.89769603  0.19547522  0.92308872  1
  C  C233  1  0.56357062  0.13731820  0.65923654  1
  H  H234  1  0.82056129  0.02370056  0.87506014  1
  C  C235  1  0.72026158  0.07344395  0.87296571  1
  O  O236  1  0.81854539  0.21676322  0.90522578  1
  C  C237  1  0.90078680  0.13984476  0.52402880  1
  O  O238  1  0.85452005  0.00381405  0.78789987  1
  C  C239  1  0.57605841  0.24971325  0.54657247  1
  H  H240  1  0.98496766  0.04516390  0.50986548  1
  O  O241  1  0.89136896  0.44827573  0.03272567  1
  O  O242  1  0.57486947  0.27982353  0.29803070  1
  H  H243  1  0.74973663  0.30082526  0.31407837  1
  C  C244  1  0.70548588  0.41965213  0.31641221  1
  C  C245  1  0.71272126  0.28991901  0.20825255  1
  C  C246  1  0.59404758  0.27479998  0.23392969  1
  C  C247  1  0.74310800  0.28753857  0.13862369  1
  C  C248  1  0.78661171  0.29961293  0.25884026  1
  C  C249  1  0.93083195  0.30991441  0.17183451  1
  C  C250  1  0.76972660  0.40928453  0.38126099  1
  C  C251  1  0.59320206  0.46073193  0.11176708  1
  H  H252  1  0.90581421  0.44366497  0.33252298  1
  O  O253  1  0.62446914  0.41615768  0.13469231  1
  O  O254  1  0.63000414  0.36375956  0.43723943  1
  O  O255  1  0.52290833  0.26693530  0.19310297  1
  O  O256  1  0.76107446  0.44180378  0.27244137  1
  C  C257  1  0.87666197  0.42653647  0.37779560  1
  O  O258  1  0.85258589  0.29605601  0.39947491  1
  C  C259  1  0.72644184  0.38131981  0.43971086  1
  O  O260  1  0.60818889  0.40514564  0.30118965  1
  H  H261  1  0.64267615  0.42331084  0.18667912  1
  H  H262  1  0.68773680  0.27534164  0.09299169  1
  C  C263  1  0.58262830  0.46825403  0.03532459  1
  C  C264  1  0.97912590  0.30784882  0.30299371  1
  C  C265  1  0.85239719  0.30042615  0.12205839  1
  C  C266  1  0.90027648  0.30708433  0.24522006  1
  C  C267  1  0.88003552  0.30158354  0.04129649  1
  C  C268  1  0.95603836  0.42569626  0.43253292  1
  H  H269  1  0.61550948  0.39437429  0.02392700  1
  C  C270  1  0.94737815  0.29985118  0.37628116  1
  Zn  Zn271  1  0.51950348  0.35074861  0.34887348  1
  O  O272  1  0.58603975  0.49498224  0.15218430  1
  C  C273  1  0.80688050  0.38561444  0.49352974  1
  C  C274  1  0.91269786  0.40454161  0.49488506  1
  O  O275  1  0.97481481  0.30878689  0.02580298  1
  H  H276  1  0.60444598  0.37425127  0.54600672  1
  O  O277  1  0.92279615  0.35166018  0.77775969  1
  C  C278  1  0.87465162  0.48714814  0.84912827  1
  H  H279  1  0.79423599  0.40339693  0.85146750  1
  C  C280  1  0.83825998  0.34292332  0.74880199  1
  H  H281  1  0.64428884  0.30365965  0.70353833  1
  C  C282  1  0.72848345  0.34832703  0.78276270  1
  O  O283  1  0.83548870  0.32455218  0.68701474  1
  C  C284  1  0.92551386  0.45781078  0.90727378  1
  C  C285  1  0.72355349  0.38135511  0.83717109  1
  C  C286  1  0.61758342  0.39261104  0.86556083  1
  Zn  Zn287  1  0.77917573  0.35991450  0.59805622  1
  H  H288  1  0.57510661  0.47819799  0.83263473  1
  O  O289  1  0.82244386  0.43005013  0.65420132  1
  H  H290  1  0.89532478  0.43247131  0.76937597  1
  C  C291  1  0.63423543  0.32514637  0.75277727  1
  Zn  Zn292  1  0.52203494  0.45839967  0.61863070  1
  O  O293  1  0.67393020  0.25830023  0.53215555  1
  C  C294  1  0.60070378  0.43202885  0.92017211  1
  O  O295  1  0.59378969  0.37616558  0.59648413  1
  C  C296  1  0.85880502  0.46854252  0.78290123  1
  H  H297  1  0.78389775  0.48130190  0.98263250  1
  C  C298  1  0.76553700  0.46488766  0.66728225  1
  C  C299  1  0.58457132  0.47768428  0.88852949  1
  O  O300  1  0.69208916  0.48051212  0.62586919  1
  C  C301  1  0.52580336  0.36661379  0.84209215  1
  H  H302  1  0.96423356  0.40316518  0.54204676  1
  C  C303  1  0.86763984  0.46015945  0.97386871  1
  O  O304  1  0.93605062  0.26454772  0.51637020  1
  C  C305  1  0.53706902  0.33557870  0.78399844  1
  C  C306  1  0.79405029  0.49176956  0.73406075  1
  C  C307  1  0.60300188  0.42775031  0.99182538  1
  O  O308  1  0.80425481  0.30287483  0.99955987  1
  C  C309  1  0.83666818  0.64223666  0.12803026  1
  O  O310  1  0.88706468  0.72115826  0.05089851  1
  H  H311  1  0.64808878  0.68489896  0.17624106  1
  O  O312  1  0.68140803  0.61084503  0.15993757  1
  C  C313  1  0.65671883  0.66561076  0.12668689  1
  O  O314  1  0.94588012  0.54351258  0.18878206  1
  H  H315  1  0.92357358  0.64655743  0.11368197  1
  H  H316  1  0.56386839  0.65113851  0.02599743  1
  C  C317  1  0.76993192  0.66777354  0.09906607  1
  C  C318  1  0.79968850  0.70059669  0.03901066  1
  C  C319  1  0.78182024  0.59795046  0.16239544  1
  C  C320  1  0.85379937  0.55695566  0.18524270  1
  Zn  Zn321  1  0.73645371  0.52009469  0.23423501  1
  H  H322  1  0.53490991  0.54301922  0.03463058  1
  C  C323  1  0.56059234  0.66865067  0.07555534  1
  C  C324  1  0.55282278  0.51166585  0.00238517  1
  H  H325  1  0.85794702  0.55760216  0.90898604  1
  O  O326  1  0.72425921  0.63977549  0.77943903  1
  C  C327  1  0.78311829  0.55946901  0.80739922  1
  C  C328  1  0.75309546  0.53890411  0.74256072  1
  Zn  Zn329  1  0.73502458  0.70564618  0.88104614  1
  O  O330  1  0.73487355  0.68882253  0.61955188  1
  O  O331  1  0.78339559  0.63032615  0.88332034  1
  C  C332  1  0.75577464  0.61149128  0.82433289  1
  C  C333  1  0.55437971  0.51485745  0.93065489  1
  C  C334  1  0.53225308  0.68300535  0.71215305  1
  C  C335  1  0.84243147  0.53639810  0.85966151  1
  H  H336  1  0.76540208  0.71740872  0.76600672  1
  H  H337  1  0.70500747  0.55689526  0.70293887  1
  C  C338  1  0.68371665  0.72437427  0.63614726  1
  C  C339  1  0.57495507  0.72160959  0.67454926  1
  O  O340  1  0.56752848  0.71771576  0.86599584  1
  O  O341  1  0.77542039  0.74686663  0.78970210  1
  O  O342  1  0.51624306  0.56155901  0.82853306  1
  O  O343  1  0.53135250  0.57894719  0.64793356  1
  H  H344  1  0.56432597  0.74216989  0.51300243  1
  C  C345  1  0.51024054  0.55969470  0.89582521  1
  H  H346  1  0.52666231  0.66063333  0.56807854  1
  O  O347  1  0.73507682  0.71128773  0.98974444  1
  C  C348  1  0.54847152  0.92439742  0.11141553  1
  H  H349  1  0.72165572  0.92560865  0.07944709  1
  C  C350  1  0.65694097  0.90943190  0.11216375  1
  C  C351  1  0.68282293  0.86658903  0.14738947  1
  C  C352  1  0.60847848  0.83627713  0.18217277  1
  O  O353  1  0.86342740  0.93628213  0.41108400  1
  Zn  Zn354  1  0.94038444  0.76312513  0.13158012  1
  H  H355  1  0.63466164  0.80293251  0.21012722  1
  C  C356  1  0.90795342  0.97065753  0.43871718  1
  C  C357  1  0.80681659  0.85213283  0.14692764  1
  O  O358  1  0.87721757  0.87945976  0.12443506  1
  O  O359  1  0.82139984  0.81091299  0.17313128  1
  H  H360  1  0.70532332  0.99018228  0.39302580  1
  C  C361  1  0.52491189  0.97047840  0.06900819  1
  C  C362  1  0.50281717  0.85578363  0.18179134  1
  O  O363  1  0.60064927  0.99547780  0.04686467  1
  O  O364  1  0.68626715  0.81527890  0.48738373  1
  C  C365  1  0.80639845  0.99522693  0.63950204  1
  O  O366  1  0.62064863  0.88621585  0.51277140  1
  O  O367  1  0.89207982  0.97133685  0.65297192  1
  Zn  Zn368  1  0.79582694  0.80123104  0.71200779  1
  C  C369  1  0.57724548  0.81440354  0.82057265  1
  O  O370  1  0.75108985  0.98347818  0.58592877  1
  Zn  Zn371  1  0.87201867  0.92710552  0.75452438  1
  C  C372  1  0.57491724  0.86084226  0.79731661  1
  O  O373  1  0.97853113  0.80763212  0.71226985  1
  C  C374  1  0.66873509  0.87726456  0.73996800  1
  O  O375  1  0.67481644  0.85634541  0.67865647  1
  H  H376  1  0.64701328  0.79126161  0.80412408  1
  H  H377  1  0.53559925  0.79499220  0.63578534  1
  O  O378  1  0.68276218  0.92266785  0.73387547  1
  O  O379  1  0.78436763  0.85928330  0.77583144  1
  Zn  Zn380  1  0.63836295  0.91862871  0.61250956  1
  O  O381  1  0.96387132  0.82650953  0.94313290  1
  O  O382  1  0.99900164  0.92224023  0.82595060  1
  O  O383  1  0.72370532  0.76651336  0.62387585  1
  C  C384  1  0.60985152  0.84044884  0.50345006  1
  O  O385  1  0.97855559  0.88400315  0.68284998  1
  C  C386  1  0.50634760  0.76170008  0.66403269  1
  H  H387  1  0.93565376  0.96677684  0.97450305  1
