# generated using pymatgen
data_CuH2(C3O2)2
_symmetry_space_group_name_H-M   'P 1'
_cell_length_a   20.42242307
_cell_length_b   18.49001449
_cell_length_c   29.31381963
_cell_angle_alpha   90.00000000
_cell_angle_beta   90.00000000
_cell_angle_gamma   90.00000000
_symmetry_Int_Tables_number   1
_chemical_formula_structural   CuH2(C3O2)2
_chemical_formula_sum   'Cu48 H96 C288 O192'
_cell_volume   11069.21776389
_cell_formula_units_Z   48
loop_
 _symmetry_equiv_pos_site_id
 _symmetry_equiv_pos_as_xyz
  1  'x, y, z'
loop_
 _atom_site_type_symbol
 _atom_site_label
 _atom_site_symmetry_multiplicity
 _atom_site_fract_x
 _atom_site_fract_y
 _atom_site_fract_z
 _atom_site_occupancy
  Cu  Cu0  1  0.15214027  0.39144841  0.07237155  1
  H  H1  1  0.46527487  0.04944202  0.15613039  1
  O  O2  1  0.22852083  0.33213530  0.06014935  1
  C  C3  1  0.09427535  0.28199140  0.01746359  1
  O  O4  1  0.08581025  0.23857929  0.04624626  1
  O  O5  1  0.14171315  0.46965982  0.10722716  1
  C  C6  1  0.42923632  0.07229645  0.07037473  1
  C  C7  1  0.26400287  0.33351135  0.02549730  1
  C  C8  1  0.01951707  0.35874581  0.17868707  1
  O  O9  1  0.42995166  0.37495916  0.02761099  1
  C  C10  1  0.45657156  0.35091153  0.12676640  1
  C  C11  1  0.44980133  0.46581365  0.16716444  1
  O  O12  1  0.09525575  0.35136431  0.02467242  1
  C  C13  1  0.49030381  0.41168152  0.14961594  1
  C  C14  1  0.02778478  0.48626356  0.22924394  1
  O  O15  1  0.41364251  0.07149193  0.03115192  1
  O  O16  1  0.07025320  0.24086409  0.21911752  1
  O  O17  1  0.39685126  0.35063018  0.12092526  1
  O  O18  1  0.20301665  0.06232435  0.04637806  1
  O  O19  1  0.29779331  0.38763329  0.01525569  1
  O  O20  1  0.47583383  0.11642920  0.08439465  1
  C  C21  1  0.41522318  0.02645373  0.14836082  1
  O  O22  1  0.49472660  0.29962897  0.11666960  1
  O  O23  1  0.44214771  0.25987314  0.02717477  1
  C  C24  1  0.39056435  0.03021224  0.10438462  1
  Cu  Cu25  1  0.35347411  0.37085802  0.06253668  1
  H  H26  1  0.21666329  0.20292152  0.04740690  1
  H  H27  1  0.39659586  0.46582121  0.16028894  1
  C  C28  1  0.04835508  0.36201346  0.22245266  1
  Cu  Cu29  1  0.47198088  0.21566709  0.08290689  1
  C  C30  1  0.07356324  0.29491280  0.24418778  1
  H  H31  1  0.01971219  0.30718188  0.16247721  1
  C  C32  1  0.45078379  0.32042683  0.00836074  1
  C  C33  1  0.05576810  0.42484434  0.24835055  1
  C  C34  1  0.00031040  0.48814132  0.18582597  1
  O  O35  1  0.06412673  0.09911711  0.24430830  1
  Cu  Cu36  1  0.00266602  0.17337105  0.22877992  1
  O  O37  1  0.45701186  0.00260100  0.23975628  1
  C  C38  1  0.24130418  0.06797998  0.01221372  1
  C  C39  1  0.24951010  0.20110343  0.01785723  1
  H  H40  1  0.00117320  0.09364470  0.45176882  1
  C  C41  1  0.43633191  0.32301783  0.36957620  1
  O  O42  1  0.37800842  0.44557607  0.30950164  1
  O  O43  1  0.20818479  0.18363529  0.34360398  1
  O  O44  1  0.07911064  0.14588500  0.40452578  1
  C  C45  1  0.24995132  0.17887980  0.42051079  1
  O  O46  1  0.10374886  0.29800361  0.28166175  1
  O  O47  1  0.32782679  0.02387421  0.33488682  1
  Cu  Cu48  1  0.30497386  0.32817365  0.33465042  1
  H  H49  1  0.45035950  0.18060611  0.35497302  1
  O  O50  1  0.38674318  0.28964457  0.35491136  1
  O  O51  1  0.27762029  0.42695983  0.33193770  1
  H  H52  1  0.26934546  0.27949728  0.45378249  1
  C  C53  1  0.23335862  0.21559090  0.37635780  1
  O  O54  1  0.05225774  0.20365782  0.34289997  1
  Cu  Cu55  1  0.13641083  0.21737134  0.31571130  1
  C  C56  1  0.20152594  0.02167362  0.29807132  1
  O  O57  1  0.43268875  0.39006847  0.38090194  1
  Cu  Cu58  1  0.45261284  0.46211556  0.34401332  1
  C  C59  1  0.32288965  0.47110101  0.32174617  1
  O  O60  1  0.15503092  0.14520401  0.27414050  1
  C  C61  1  0.03719511  0.16344773  0.37862604  1
  H  H62  1  0.23005384  0.07226856  0.39229382  1
  O  O63  1  0.24763461  0.28140675  0.37552321  1
  C  C64  1  0.24907393  0.10364357  0.42168213  1
  H  H65  1  0.23250327  0.07178071  0.29909778  1
  H  H66  1  0.07713709  0.42864602  0.28273664  1
  C  C67  1  0.26803546  0.21988049  0.45789071  1
  C  C68  1  0.11839841  0.09232839  0.26378119  1
  C  C69  1  0.13739522  0.01959257  0.28069954  1
  C  C70  1  0.49788877  0.28472976  0.37509698  1
  C  C71  1  0.27228190  0.06365749  0.46044288  1
  C  C72  1  0.49565983  0.21113485  0.36537966  1
  Cu  Cu73  1  0.48623647  0.02839730  0.29743893  1
  C  C74  1  0.28392959  0.18392444  0.49925963  1
  C  C75  1  0.28673181  0.10898965  0.49908512  1
  C  C76  1  0.44662432  0.32501630  0.58959843  1
  O  O77  1  0.41955966  0.27718614  0.61369014  1
  O  O78  1  0.02445290  0.00896195  0.66117020  1
  C  C79  1  0.29926924  0.23053761  0.53673098  1
  Cu  Cu80  1  0.41532063  0.18607161  0.58581392  1
  H  H81  1  0.29959464  0.08677498  0.53228375  1
  O  O82  1  0.32187623  0.19773008  0.57116402  1
  O  O83  1  0.49704438  0.15152803  0.60385790  1
  O  O84  1  0.42679241  0.33762822  0.55053684  1
  O  O85  1  0.29214624  0.29884170  0.53375938  1
  Cu  Cu86  1  0.34058775  0.38581376  0.54146650  1
  C  C87  1  0.37473651  0.49328842  0.74240736  1
  H  H88  1  0.48457031  0.34334374  0.67776303  1
  O  O89  1  0.39169177  0.47300441  0.54668890  1
  O  O90  1  0.38969041  0.47869729  0.69937010  1
  C  C91  1  0.32677981  0.20422217  0.94095872  1
  H  H92  1  0.47498655  0.43527075  0.96233608  1
  C  C93  1  0.30966464  0.27054461  0.96076792  1
  C  C94  1  0.11932708  0.18218945  0.96207265  1
  O  O95  1  0.19448441  0.33053467  0.82785735  1
  C  C96  1  0.16930999  0.20690675  0.88638195  1
  Cu  Cu97  1  0.10903138  0.47337857  0.85087334  1
  O  O98  1  0.13500619  0.03363230  0.94161271  1
  H  H99  1  0.48305549  0.20312230  0.95785037  1
  O  O100  1  0.39135743  0.14785668  0.87966701  1
  C  C101  1  0.13156455  0.30711277  0.93687974  1
  C  C102  1  0.14742723  0.15980124  0.92035160  1
  C  C103  1  0.48246355  0.31910974  0.96288708  1
  C  C104  1  0.15680966  0.08131890  0.91002498  1
  H  H105  1  0.32578900  0.32513369  0.94672679  1
  O  O106  1  0.18272164  0.06362051  0.87537687  1
  O  O107  1  0.15313325  0.40661792  0.87773409  1
  C  C108  1  0.37197175  0.20679023  0.89891583  1
  H  H109  1  0.19459769  0.19129241  0.85540061  1
  H  H110  1  0.31786705  0.08941990  0.93662597  1
  O  O111  1  0.38214513  0.26340011  0.88122762  1
  C  C112  1  0.15634036  0.27835458  0.89743468  1
  C  C113  1  0.30672797  0.13664217  0.95624747  1
  C  C114  1  0.16988991  0.34029188  0.86380057  1
  O  O115  1  0.24921382  0.01262509  0.98780093  1
  C  C116  1  0.26696181  0.13673704  0.99427018  1
  Cu  Cu117  1  0.45625189  0.08093352  0.90163136  1
  H  H118  1  0.12663489  0.36652646  0.94316528  1
  Cu  Cu119  1  0.48324618  0.43201014  0.77956439  1
  C  C120  1  0.49412039  0.38717289  0.94372341  1
  C  C121  1  0.11550161  0.25545749  0.97030618  1
  H  H122  1  0.09829983  0.14063935  0.98637216  1
  C  C123  1  0.49860787  0.25269234  0.94312004  1
  O  O124  1  0.41611129  0.49060452  0.77233444  1
  C  C125  1  0.27161123  0.26432440  0.99964342  1
  C  C126  1  0.39426220  0.76950247  0.21100351  1
  C  C127  1  0.21096605  0.67573025  0.07465024  1
  O  O128  1  0.23342050  0.60073040  0.23504015  1
  O  O129  1  0.22028415  0.70164454  0.11118523  1
  C  C130  1  0.44326821  0.57445649  0.21722135  1
  H  H131  1  0.47238158  0.87630537  0.19134194  1
  C  C132  1  0.13325439  0.63329737  0.19855801  1
  C  C133  1  0.33453943  0.99153758  0.08923017  1
  O  O134  1  0.38524969  0.82298326  0.01390259  1
  C  C135  1  0.18035852  0.63620476  0.23630726  1
  Cu  Cu136  1  0.32968399  0.66956389  0.03506610  1
  H  H137  1  0.30161236  0.90826992  0.18962420  1
  C  C138  1  0.08781069  0.68851291  0.19055834  1
  O  O139  1  0.25148749  0.63459196  0.05376884  1
  H  H140  1  0.38401354  0.68238602  0.13339866  1
  C  C141  1  0.42814876  0.77998068  0.16659182  1
  C  C142  1  0.32381215  0.94018838  0.16452595  1
  O  O143  1  0.41218172  0.63999080  0.05824724  1
  H  H144  1  0.08608582  0.73852326  0.21242818  1
  C  C145  1  0.10440286  0.52260469  0.09551477  1
  C  C146  1  0.05549580  0.63906264  0.11795212  1
  O  O147  1  0.34459111  0.73117928  0.21375123  1
  H  H148  1  0.15269991  0.81303620  0.08379175  1
  C  C149  1  0.13809437  0.57557705  0.16789302  1
  C  C150  1  0.15238812  0.70710998  0.04724706  1
  C  C151  1  0.09893575  0.58036147  0.12875313  1
  O  O152  1  0.38619683  0.58925575  0.20490601  1
  C  C153  1  0.46096614  0.73612929  0.09532235  1
  H  H154  1  0.17262707  0.53007756  0.17428336  1
  O  O155  1  0.07763609  0.52778286  0.05743960  1
  C  C156  1  0.13175899  0.77711491  0.05822072  1
  Cu  Cu157  1  0.32286878  0.64209179  0.23791345  1
  C  C158  1  0.41768066  0.72947687  0.13192090  1
  C  C159  1  0.12040525  0.65627816  0.02070292  1
  O  O160  1  0.08851499  0.91523425  0.05777064  1
  H  H161  1  0.03146687  0.64246976  0.08463715  1
  C  C162  1  0.23760325  0.90840332  0.11238505  1
  C  C163  1  0.05173335  0.69250390  0.15076939  1
  O  O164  1  0.21126814  0.91578795  0.07070626  1
  C  C165  1  0.06376945  0.87649566  0.02684987  1
  H  H166  1  0.13558513  0.59895448  0.01563146  1
  O  O167  1  0.21772066  0.87172718  0.14241985  1
  C  C168  1  0.45949215  0.68256160  0.05995670  1
  C  C169  1  0.30276207  0.94847579  0.12004442  1
  Cu  Cu170  1  0.14764209  0.98333564  0.05186532  1
  C  C171  1  0.40609777  0.97487594  0.22354412  1
  C  C172  1  0.08153741  0.80074049  0.02872875  1
  C  C173  1  0.00709805  0.75477140  0.13867209  1
  C  C174  1  0.47140307  0.83839028  0.16278695  1
  C  C175  1  0.48362671  0.51583757  0.19390796  1
  C  C176  1  0.37838460  0.98200109  0.17822658  1
  H  H177  1  0.31884821  0.99203967  0.05454868  1
  O  O178  1  0.00314525  0.79985630  0.16689686  1
  O  O179  1  0.41604294  0.80483478  0.24425683  1
  O  O180  1  0.47293382  0.60373182  0.24883681  1
  O  O181  1  0.36566831  0.93956552  0.24908135  1
  O  O182  1  0.01573856  0.89916180  0.00262037  1
  O  O183  1  0.19069808  0.72177926  0.40865560  1
  O  O184  1  0.40016520  0.78674389  0.33912267  1
  C  C185  1  0.19160158  0.66984347  0.38105353  1
  O  O186  1  0.14455122  0.63396120  0.36829619  1
  C  C187  1  0.07239740  0.85677076  0.48267849  1
  C  C188  1  0.37161875  0.59344647  0.32883757  1
  C  C189  1  0.19854585  0.89515480  0.32076185  1
  O  O190  1  0.11895360  0.78586690  0.34125174  1
  H  H191  1  0.06428749  0.63220161  0.42224241  1
  H  H192  1  0.22257231  0.84719393  0.33731922  1
  O  O193  1  0.01876111  0.64992876  0.34514872  1
  O  O194  1  0.03590774  0.82856966  0.30202882  1
  C  C195  1  0.23000545  0.95940987  0.31608907  1
  C  C196  1  0.13256784  0.90052528  0.30673928  1
  O  O197  1  0.46483994  0.69944369  0.31634912  1
  C  C198  1  0.25650656  0.64018019  0.36372596  1
  H  H199  1  0.29564531  0.74673621  0.37434931  1
  C  C200  1  0.30420027  0.69186017  0.36159373  1
  H  H201  1  0.41964363  0.57526894  0.31542933  1
  O  O202  1  0.47202453  0.65076826  0.44562557  1
  C  C203  1  0.31750541  0.54650316  0.33242828  1
  Cu  Cu204  1  0.09602494  0.66444089  0.30984291  1
  C  C205  1  0.09324320  0.83458103  0.31716343  1
  C  C206  1  0.36256208  0.66560101  0.34059244  1
  C  C207  1  0.25676695  0.56906803  0.35024741  1
  Cu  Cu208  1  0.12777633  0.79434436  0.40655496  1
  O  O209  1  0.04417350  0.89801881  0.45953897  1
  C  C210  1  0.30246238  0.96638940  0.33032115  1
  O  O211  1  0.11505404  0.80847596  0.46592607  1
  C  C212  1  0.41350616  0.72129107  0.33540890  1
  C  C213  1  0.45731294  0.70480779  0.46774828  1
  O  O214  1  0.33606916  0.90928689  0.33730307  1
  Cu  Cu215  1  0.37979225  0.86235109  0.29130549  1
  C  C216  1  0.10179668  0.95481673  0.28286667  1
  O  O217  1  0.27188404  0.99694404  0.46562513  1
  H  H218  1  0.21440935  0.53435592  0.35239583  1
  O  O219  1  0.16353371  0.67939913  0.26768439  1
  H  H220  1  0.04846229  0.94949502  0.27476555  1
  O  O221  1  0.07794924  0.56999962  0.28247836  1
  C  C222  1  0.02923703  0.66776711  0.43893093  1
  C  C223  1  0.02443507  0.68064309  0.48613556  1
  O  O224  1  0.10330345  0.59480705  0.49940214  1
  O  O225  1  0.48083985  0.76707936  0.45854868  1
  H  H226  1  0.41869922  0.57227036  0.49342251  1
  C  C227  1  0.03404109  0.55678380  0.25407230  1
  Cu  Cu228  1  0.25449217  0.78034620  0.68585835  1
  C  C229  1  0.15329995  0.57033453  0.68911373  1
  C  C230  1  0.11436636  0.81565333  0.55987446  1
  O  O231  1  0.16680243  0.70939255  0.61472081  1
  O  O232  1  0.35268256  0.84300760  0.59964589  1
  C  C233  1  0.10883020  0.82218469  0.60787506  1
  C  C234  1  0.04622275  0.92926458  0.60171455  1
  Cu  Cu235  1  0.42440206  0.53522236  0.65799991  1
  C  C236  1  0.26548489  0.52798229  0.71338867  1
  Cu  Cu237  1  0.12726316  0.62030218  0.60784060  1
  O  O238  1  0.33174064  0.76523660  0.65311793  1
  H  H239  1  0.39275910  0.80193575  0.52520214  1
  C  C240  1  0.14431442  0.76489907  0.63427993  1
  C  C241  1  0.07603777  0.87819810  0.62959949  1
  O  O242  1  0.16352958  0.77851882  0.67430865  1
  H  H243  1  0.27695598  0.51539594  0.67750892  1
  H  H244  1  0.07993835  0.88118022  0.66673172  1
  C  C245  1  0.36276184  0.72247618  0.57717177  1
  C  C246  1  0.40286869  0.61592393  0.51835565  1
  H  H247  1  0.32894662  0.63464519  0.62251806  1
  H  H248  1  0.14409974  0.77492699  0.54302615  1
  O  O249  1  0.17542679  0.56733523  0.64719678  1
  C  C250  1  0.04156071  0.91961319  0.55503661  1
  C  C251  1  0.06933290  0.63925603  0.51746092  1
  O  O252  1  0.06847655  0.64848651  0.56192167  1
  C  C253  1  0.35337048  0.65086921  0.58960798  1
  C  C254  1  0.34479415  0.78265837  0.61094226  1
  C  C255  1  0.07668668  0.86339053  0.53417249  1
  C  C256  1  0.37588944  0.59725116  0.56060571  1
  O  O257  1  0.09764875  0.58072633  0.70039281  1
  H  H258  1  0.01608854  0.96030210  0.53437972  1
  C  C259  1  0.38855501  0.74382612  0.53515377  1
  C  C260  1  0.22916271  0.92486553  0.73160395  1
  O  O261  1  0.36640012  0.50555455  0.61642551  1
  O  O262  1  0.27715331  0.72465762  0.73653034  1
  C  C263  1  0.41248407  0.68828661  0.50795630  1
  O  O264  1  0.47061664  0.62209005  0.64516773  1
  C  C265  1  0.01699603  0.99613060  0.62219133  1
  C  C266  1  0.20486062  0.55476374  0.72477508  1
  C  C267  1  0.37363559  0.52073779  0.57412215  1
  O  O268  1  0.26056088  0.92896381  0.70316732  1
  O  O269  1  0.48848364  0.64016786  0.71879228  1
  H  H270  1  0.17138410  0.71503951  0.77920904  1
  C  C271  1  0.25858129  0.76255847  0.81188075  1
  H  H272  1  0.12470756  0.58049219  0.77509198  1
  C  C273  1  0.47620881  0.75940592  0.87099189  1
  O  O274  1  0.24802569  0.58296978  0.88099334  1
  H  H275  1  0.32504828  0.52608521  0.82181857  1
  O  O276  1  0.31580833  0.89717688  0.92233035  1
  O  O277  1  0.47844725  0.63678722  0.84932572  1
  H  H278  1  0.00456943  0.77235053  0.97670351  1
  O  O279  1  0.02580125  0.56369049  0.98068963  1
  C  C280  1  0.19243849  0.74339389  0.80905546  1
  C  C281  1  0.28366598  0.79645889  0.85044860  1
  H  H282  1  0.01194161  0.60030853  0.76764778  1
  H  H283  1  0.14629173  0.79475208  0.91716429  1
  C  C284  1  0.20830934  0.56941810  0.85217968  1
  H  H285  1  0.33418682  0.81592014  0.85128415  1
  C  C286  1  0.23962433  0.81538725  0.88480257  1
  H  H287  1  0.46028504  0.90483709  0.96424368  1
  C  C288  1  0.17660195  0.78793007  0.88569103  1
  C  C289  1  0.43320338  0.79500590  0.94378518  1
  C  C290  1  0.26820383  0.86046944  0.92149853  1
  H  H291  1  0.41057315  0.69359625  0.91188215  1
  O  O292  1  0.35880622  0.71651125  0.98333722  1
  C  C293  1  0.15087904  0.75290213  0.84703153  1
  C  C294  1  0.46172068  0.86403938  0.93717656  1
  C  C295  1  0.43753993  0.74391792  0.90976818  1
  O  O296  1  0.22068137  0.86805463  0.95290693  1
  O  O297  1  0.03778304  0.75732709  0.87036500  1
  C  C298  1  0.08200522  0.74531328  0.83974945  1
  O  O299  1  0.49443610  0.51445440  0.88636916  1
  Cu  Cu300  1  0.18176958  0.95801900  0.96323442  1
  O  O301  1  0.14524267  0.56537849  0.85934913  1
  O  O302  1  0.06567817  0.72873193  0.79925147  1
  C  C303  1  0.17968962  0.56308336  0.76915813  1
  C  C304  1  0.48200208  0.70282472  0.83846549  1
  O  O305  1  0.36315845  0.75747596  0.77516276  1
  C  C306  1  0.30229007  0.74752013  0.77331072  1
  C  C307  1  0.28882035  0.53528877  0.79542462  1
  C  C308  1  0.38896649  0.78156725  0.98384958  1
  C  C309  1  0.49675720  0.88163617  0.89864864  1
  C  C310  1  0.02178924  0.63025148  0.97267431  1
  C  C311  1  0.22496099  0.55495271  0.80295674  1
  Cu  Cu312  1  0.43077212  0.69955457  0.75040217  1
  C  C313  1  0.04644814  0.75450539  0.99792240  1
  O  O314  1  0.04180834  0.50215977  0.81794018  1
  C  C315  1  0.30916650  0.52009112  0.75008802  1
  O  O316  1  0.48794894  0.72437445  0.79664663  1
  C  C317  1  0.06357624  0.68265925  0.99808450  1
  C  C318  1  0.77392237  0.28096555  0.18192253  1
  O  O319  1  0.75733564  0.18325656  0.07687020  1
  C  C320  1  0.77304019  0.22682637  0.10360478  1
  O  O321  1  0.93133274  0.22211779  0.19761802  1
  H  H322  1  0.69343571  0.12640358  0.14485470  1
  O  O323  1  0.69156779  0.41339701  0.15910930  1
  O  O324  1  0.81075882  0.28192063  0.09310460  1
  H  H325  1  0.91601127  0.09045708  0.09855100  1
  O  O326  1  0.62090702  0.06795445  0.19721920  1
  H  H327  1  0.80518764  0.32584387  0.16783784  1
  C  C328  1  0.58943150  0.46662376  0.17579089  1
  C  C329  1  0.88039101  0.12036731  0.16468269  1
  C  C330  1  0.97836546  0.42256045  0.11168148  1
  C  C331  1  0.75231366  0.22667142  0.15392113  1
  O  O332  1  0.86397349  0.41715431  0.00334902  1
  C  C333  1  0.66255835  0.45987100  0.18107193  1
  C  C334  1  0.70802325  0.17253891  0.16667836  1
  C  C335  1  0.88424241  0.07424448  0.12648284  1
  C  C336  1  0.68639635  0.17436247  0.21224147  1
  C  C337  1  0.74935112  0.28288307  0.22693104  1
  C  C338  1  0.83775302  0.10403766  0.19871045  1
  C  C339  1  0.75647690  0.02225573  0.23437416  1
  H  H340  1  0.59356429  0.37062532  0.13911002  1
  C  C341  1  0.55863134  0.41161114  0.15112756  1
  C  C342  1  0.64300946  0.11405553  0.22522674  1
  C  C343  1  0.91325734  0.19103814  0.16230961  1
  Cu  Cu344  1  0.90069933  0.29930559  0.08863300  1
  C  C345  1  0.80699021  0.03444472  0.19990046  1
  O  O346  1  0.92869602  0.21144167  0.12301877  1
  C  C347  1  0.70759272  0.22822585  0.24228038  1
  H  H348  1  0.81959940  0.14490945  0.22093247  1
  O  O349  1  0.97162834  0.36419023  0.09020667  1
  Cu  Cu350  1  0.77253383  0.48757386  0.23760122  1
  O  O351  1  0.95957142  0.48222843  0.09526720  1
  C  C352  1  0.99832048  0.42439209  0.15986374  1
  C  C353  1  0.85749468  0.00490361  0.13077778  1
  O  O354  1  0.80341276  0.39143308  0.23864899  1
  Cu  Cu355  1  0.76230550  0.29157406  0.34747641  1
  O  O356  1  0.78317710  0.20298305  0.32796109  1
  C  C357  1  0.88055661  0.04254694  0.48809915  1
  C  C358  1  0.56029600  0.09851657  0.36357318  1
  H  H359  1  0.79649815  0.07579462  0.42257216  1
  O  O360  1  0.61742112  0.07273921  0.35907716  1
  H  H361  1  0.66033179  0.18313496  0.38283047  1
  O  O362  1  0.74396045  0.34970924  0.29550344  1
  O  O363  1  0.72438679  0.29152251  0.40405399  1
  C  C364  1  0.89741136  0.08064091  0.44466879  1
  C  C365  1  0.55560621  0.17566298  0.37188202  1
  H  H366  1  0.92473500  0.20277431  0.33460311  1
  H  H367  1  0.68581050  0.22909404  0.27502212  1
  C  C368  1  0.84590037  0.09219938  0.41372251  1
  O  O369  1  0.66450045  0.37805831  0.43384657  1
  O  O370  1  0.52279642  0.49179584  0.37130803  1
  O  O371  1  0.62968882  0.10867203  0.26691503  1
  C  C372  1  0.76840737  0.34257405  0.25560619  1
  O  O373  1  0.58478496  0.44145589  0.31800371  1
  Cu  Cu374  1  0.69996006  0.38033287  0.49617373  1
  C  C375  1  0.95854174  0.10484583  0.43125930  1
  C  C376  1  0.61401190  0.21256075  0.38196538  1
  C  C377  1  0.67147387  0.32165720  0.40928372  1
  Cu  Cu378  1  0.68769414  0.07754841  0.31062341  1
  O  O379  1  0.74360920  0.10457853  0.35873095  1
  C  C380  1  0.85468607  0.13619767  0.37484457  1
  C  C381  1  0.55183476  0.32228358  0.39142744  1
  C  C382  1  0.61042403  0.28412483  0.39574517  1
  C  C383  1  0.79074645  0.14736169  0.35114238  1
  C  C384  1  0.91633981  0.16881317  0.36478679  1
  H  H385  1  0.55101309  0.37773992  0.40200021  1
  C  C386  1  0.96793378  0.14350240  0.39009318  1
  O  O387  1  0.75955465  0.06761333  0.26732266  1
  C  C388  1  0.57840416  0.48444274  0.34851895  1
  O  O389  1  0.50920319  0.06051743  0.35666102  1
  H  H390  1  0.69911029  0.47149989  0.31491181  1
  H  H391  1  0.74999829  0.31757364  0.66684982  1
  O  O392  1  0.74183835  0.30379823  0.52696035  1
  C  C393  1  0.66012462  0.25514833  0.67693029  1
  H  H394  1  0.73808271  0.07051087  0.70147933  1
  C  C395  1  0.50582728  0.36551992  0.60595381  1
  C  C396  1  0.66051261  0.25830025  0.72677318  1
  C  C397  1  0.70626733  0.28072371  0.60483997  1
  C  C398  1  0.71071859  0.28846524  0.65176682  1
  C  C399  1  0.61231280  0.44463046  0.64071555  1
  C  C400  1  0.59789736  0.44469855  0.59436835  1
  O  O401  1  0.63981259  0.44247173  0.73126396  1
  O  O402  1  0.61810409  0.22321307  0.74946673  1
  C  C403  1  0.57105648  0.40910740  0.67075357  1
  C  C404  1  0.58580642  0.41312791  0.71979376  1
  C  C405  1  0.79264518  0.46967008  0.70396935  1
  C  C406  1  0.64465056  0.47715030  0.55899708  1
  O  O407  1  0.77529423  0.03318350  0.62103744  1
  O  O408  1  0.70631487  0.29197851  0.74464894  1
  C  C409  1  0.54539971  0.40540473  0.57574174  1
  O  O410  1  0.79990391  0.34817256  0.58279633  1
  C  C411  1  0.65353299  0.24210480  0.58583715  1
  C  C412  1  0.75636486  0.31089941  0.57118709  1
  C  C413  1  0.60377416  0.20979726  0.61122479  1
  H  H414  1  0.65261962  0.24023677  0.54829672  1
  H  H415  1  0.65786413  0.47359976  0.65605493  1
  C  C416  1  0.60946384  0.21026921  0.65875107  1
  H  H417  1  0.57480755  0.18480528  0.68044071  1
  O  O418  1  0.63989905  0.45195796  0.51744570  1
  Cu  Cu419  1  0.78880554  0.04602993  0.55832375  1
  H  H420  1  0.53324895  0.40636972  0.53969130  1
  O  O421  1  0.77968940  0.40756328  0.72308440  1
  O  O422  1  0.97572090  0.03261443  0.59602394  1
  O  O423  1  0.92495661  0.01883047  0.51256938  1
  O  O424  1  0.82194179  0.04291185  0.50094915  1
  O  O425  1  0.55646524  0.17449865  0.54380424  1
  C  C426  1  0.54974162  0.17411966  0.58407524  1
  C  C427  1  0.51733442  0.37133740  0.65271501  1
  C  C428  1  0.76681042  0.02505663  0.71706081  1
  O  O429  1  0.75849124  0.49667817  0.67623315  1
  O  O430  1  0.54610334  0.38324982  0.74750307  1
  O  O431  1  0.71946746  0.43672535  0.81626045  1
  H  H432  1  0.80739045  0.39327649  0.93443101  1
  C  C433  1  0.51825814  0.45495762  0.87152101  1
  C  C434  1  0.78993734  0.46951176  0.87608808  1
  C  C435  1  0.88740783  0.47554863  0.75694994  1
  C  C436  1  0.52770535  0.26060767  0.89999315  1
  H  H437  1  0.87087963  0.42266179  0.77119215  1
  C  C438  1  0.76031889  0.00803820  0.76401999  1
  O  O439  1  0.73700457  0.35559983  0.87127808  1
  C  C440  1  0.53760973  0.32750272  0.87689336  1
  Cu  Cu441  1  0.62537012  0.15709050  0.79900994  1
  H  H442  1  0.55557625  0.33091671  0.84266856  1
  C  C443  1  0.54556262  0.19744608  0.87176765  1
  O  O444  1  0.53672750  0.44843097  0.83082413  1
  O  O445  1  0.53708127  0.13578880  0.88850833  1
  O  O446  1  0.56672193  0.20689765  0.83130337  1
  C  C447  1  0.81480166  0.44669501  0.91855961  1
  C  C448  1  0.71089747  0.05030227  0.78869384  1
  C  C449  1  0.87261070  0.47595289  0.98821725  1
  O  O450  1  0.96565870  0.42442294  0.83222586  1
  Cu  Cu451  1  0.71042391  0.39466073  0.76168500  1
  C  C452  1  0.74950896  0.41388839  0.85336169  1
  O  O453  1  0.67738729  0.09389834  0.76696593  1
  C  C454  1  0.51417709  0.38919584  0.89788355  1
  O  O455  1  0.70611304  0.04090976  0.83152786  1
  O  O456  1  0.50940726  0.00052968  0.91934889  1
  C  C457  1  0.98290759  0.47630403  0.81095497  1
  O  O458  1  0.86801870  0.02329608  0.94169166  1
  C  C459  1  0.86780945  0.95187311  0.09641985  1
  O  O460  1  0.59423649  0.91651978  0.09069325  1
  O  O461  1  0.71853247  0.96997332  0.23495976  1
  H  H462  1  0.98393219  0.53943024  0.17016962  1
  C  C463  1  0.50455234  0.79334348  0.08900124  1
  Cu  Cu464  1  0.90415944  0.80906078  0.07490534  1
  O  O465  1  0.85160138  0.88563873  0.09952604  1
  C  C466  1  0.82120859  0.98035401  0.16944341  1
  C  C467  1  0.50941976  0.84362751  0.12427986  1
  C  C468  1  0.55866047  0.90616679  0.12253413  1
  C  C469  1  0.78930922  0.64240847  0.18003470  1
  H  H470  1  0.80226955  0.92704443  0.17316055  1
  C  C471  1  0.54888104  0.51828392  0.19875040  1
  H  H472  1  0.52960329  0.79722919  0.05609889  1
  C  C473  1  0.74181034  0.67070035  0.20900266  1
  H  H474  1  0.80158776  0.58533293  0.11601036  1
  O  O475  1  0.56252356  0.95032013  0.15877392  1
  C  C476  1  0.70217261  0.61210215  0.12826600  1
  O  O477  1  0.56588721  0.69881005  0.21561131  1
  O  O478  1  0.89628408  0.60861955  0.17003892  1
  C  C479  1  0.76823031  0.61028628  0.13955870  1
  Cu  Cu480  1  0.58555497  0.63914413  0.02364823  1
  O  O481  1  0.90649954  0.52508763  0.01108893  1
  C  C482  1  0.65408124  0.64440983  0.15494780  1
  H  H483  1  0.60296776  0.65090138  0.14496494  1
  C  C484  1  0.68590451  0.58468513  0.08216912  1
  C  C485  1  0.86023934  0.64137411  0.19340126  1
  H  H486  1  0.56823454  0.55853239  0.22089056  1
  Cu  Cu487  1  0.63682456  0.96174531  0.19725961  1
  Cu  Cu488  1  0.92664023  0.91098524  0.01511504  1
  O  O489  1  0.62217820  0.59515283  0.07353528  1
  C  C490  1  0.67680472  0.67412696  0.19582942  1
  O  O491  1  0.84869438  0.77030193  0.03036018  1
  O  O492  1  0.72321894  0.55691802  0.05614717  1
  O  O493  1  0.97352112  0.75566845  0.09993610  1
  O  O494  1  0.89398290  0.97387216  0.05948802  1
  H  H495  1  0.75919259  0.69794084  0.24069087  1
  O  O496  1  0.59281724  0.90631519  0.24626040  1
  C  C497  1  0.62638174  0.70786405  0.22732578  1
  O  O498  1  0.87610009  0.66479197  0.23449087  1
  O  O499  1  0.69821784  0.50074137  0.20710943  1
  Cu  Cu500  1  0.99083138  0.52366962  0.03665452  1
  O  O501  1  0.98769033  0.59724840  0.24786861  1
  O  O502  1  0.50505750  0.68317211  0.02980569  1
  C  C503  1  0.79911697  0.56164597  0.31718218  1
  C  C504  1  0.66544187  0.70685158  0.42281743  1
  O  O505  1  0.70356364  0.88461092  0.47455812  1
  C  C506  1  0.93332364  0.74959832  0.43323637  1
  C  C507  1  0.74133862  0.87999047  0.38269910  1
  H  H508  1  0.77747337  0.67279940  0.37135696  1
  C  C509  1  0.63784030  0.90198495  0.32133862  1
  C  C510  1  0.67588972  0.89659744  0.39816183  1
  C  C511  1  0.62650702  0.91262462  0.36786007  1
  O  O512  1  0.86640891  0.84926469  0.34287532  1
  H  H513  1  0.57481153  0.92559751  0.37928996  1
  O  O514  1  0.53221731  0.93949904  0.30518747  1
  C  C515  1  0.73469114  0.63596253  0.36842157  1
  C  C516  1  0.93339709  0.75669666  0.47939345  1
  O  O517  1  0.71241303  0.74734115  0.43235596  1
  O  O518  1  0.81391936  0.83647601  0.27564986  1
  H  H519  1  0.89233489  0.77002892  0.41264319  1
  Cu  Cu520  1  0.91303629  0.60962663  0.28135779  1
  C  C521  1  0.74997393  0.87055009  0.33578025  1
  C  C522  1  0.98349048  0.69654712  0.36360975  1
  O  O523  1  0.94489460  0.73727041  0.34168915  1
  O  O524  1  0.60645462  0.72299025  0.43373099  1
  C  C525  1  0.98426904  0.70742944  0.41410060  1
  C  C526  1  0.69884251  0.87636315  0.30483803  1
  C  C527  1  0.62445232  0.59843500  0.38578711  1
  C  C528  1  0.68954015  0.51985477  0.33521288  1
  H  H529  1  0.78007051  0.86764837  0.40757927  1
  Cu  Cu530  1  0.95371367  0.83663042  0.32473198  1
  C  C531  1  0.63228801  0.53789710  0.35845013  1
  H  H532  1  0.57675614  0.61289004  0.39967322  1
  C  C533  1  0.65688021  0.89365565  0.44719513  1
  C  C534  1  0.58590140  0.91683794  0.28782820  1
  C  C535  1  0.81546639  0.84724613  0.31567886  1
  C  C536  1  0.67704422  0.64636141  0.39284051  1
  C  C537  1  0.73789147  0.57303789  0.34095722  1
  Cu  Cu538  1  0.50026346  0.69954108  0.25987202  1
  O  O539  1  0.84240019  0.60842160  0.31738654  1
  Cu  Cu540  1  0.56974563  0.78941716  0.47760152  1
  H  H541  1  0.70788949  0.86008384  0.26783414  1
  O  O542  1  0.59881585  0.88539408  0.45981774  1
  O  O543  1  0.64240588  0.73080694  0.26361437  1
  O  O544  1  0.82745139  0.81333869  0.47743789  1
  O  O545  1  0.80976080  0.50183323  0.29434315  1
  Cu  Cu546  1  0.74035630  0.79185388  0.49084281  1
  C  C547  1  0.85445381  0.50741546  0.72094662  1
  O  O548  1  0.87599113  0.79761690  0.54395786  1
  C  C549  1  0.57422408  0.70240360  0.61878701  1
  H  H550  1  0.88131937  0.89443658  0.69015326  1
  O  O551  1  0.91666202  0.70812002  0.67438807  1
  H  H552  1  0.72345697  0.79175016  0.62895644  1
  C  C553  1  0.64126828  0.75824009  0.55818424  1
  O  O554  1  0.69375317  0.79314355  0.54769224  1
  C  C555  1  0.87314968  0.57290586  0.70126035  1
  C  C556  1  0.84685916  0.92657986  0.70914619  1
  O  O557  1  0.99765858  0.71147558  0.72385447  1
  O  O558  1  0.76308927  0.79987867  0.70573760  1
  C  C559  1  0.63321020  0.73995069  0.60697039  1
  C  C560  1  0.60494572  0.71179808  0.69877392  1
  C  C561  1  0.71748238  0.76262633  0.71787193  1
  H  H562  1  0.97872138  0.72423749  0.54599049  1
  O  O563  1  0.85182257  0.94811832  0.62010428  1
  C  C564  1  0.94846612  0.68001793  0.70317758  1
  C  C565  1  0.67773053  0.76333799  0.63891081  1
  H  H566  1  0.53485882  0.68753058  0.59265642  1
  C  C567  1  0.93161811  0.60464215  0.71727102  1
  C  C568  1  0.66295356  0.74528539  0.68502348  1
  O  O569  1  0.60299522  0.73677975  0.52918327  1
  H  H570  1  0.59564447  0.69907010  0.73348452  1
  C  C571  1  0.56358586  0.68716415  0.66444160  1
  C  C572  1  0.97903112  0.72063689  0.50846421  1
  H  H573  1  0.84242580  0.60087957  0.67698826  1
  C  C574  1  0.50361073  0.64887861  0.67658396  1
  C  C575  1  0.80866104  0.98300340  0.69142288  1
  O  O576  1  0.68540940  0.51811804  0.57173382  1
  C  C577  1  0.81427527  0.98999865  0.64100152  1
  Cu  Cu578  1  0.89811177  0.98228955  0.56640242  1
  C  C579  1  0.87517862  0.79291856  0.50388314  1
  Cu  Cu580  1  0.99848506  0.77523292  0.77560251  1
  C  C581  1  0.50272609  0.82709777  0.86501978  1
  C  C582  1  0.86238839  0.57039204  0.92623501  1
  H  H583  1  0.88908273  0.61069664  0.94707239  1
  C  C584  1  0.94426327  0.51067928  0.77145897  1
  O  O585  1  0.85590663  0.82172006  0.80752903  1
  O  O586  1  0.84569721  0.65893216  0.81523303  1
  C  C587  1  0.77843263  0.79344384  0.96395141  1
  H  H588  1  0.81537655  0.87792815  0.92399271  1
  C  C589  1  0.83628005  0.80312485  0.99406455  1
  O  O590  1  0.58529692  0.68502993  0.90920675  1
  O  O591  1  0.97793648  0.65933411  0.94961672  1
  Cu  Cu592  1  0.98710085  0.68532146  0.89132995  1
  O  O593  1  0.87524067  0.84993536  0.97981758  1
  O  O594  1  0.63456386  0.63649250  0.96854756  1
  Cu  Cu595  1  0.79751182  0.74343505  0.79328606  1
  H  H596  1  0.78721685  0.93900167  0.81929797  1
  H  H597  1  0.78805581  0.55052353  0.82517622  1
  Cu  Cu598  1  0.65205911  0.97855790  0.86696666  1
  C  C599  1  0.89033266  0.99096972  0.91628948  1
  O  O600  1  0.71177263  0.90193593  0.86835671  1
  O  O601  1  0.56670829  0.96203806  0.85901198  1
  C  C602  1  0.84487649  0.58713743  0.88166032  1
  C  C603  1  0.79582028  0.95150477  0.78354524  1
  C  C604  1  0.68036814  0.74207215  0.93870670  1
  C  C605  1  0.86425086  0.65176056  0.85590512  1
  C  C606  1  0.67193940  0.79565716  0.90614226  1
  O  O607  1  0.90214370  0.69440997  0.87634695  1
  C  C608  1  0.73143425  0.73914078  0.97030830  1
  H  H609  1  0.62691835  0.79562567  0.88540033  1
  C  C610  1  0.71829852  0.85221551  0.89968035  1
  C  C611  1  0.88009743  0.85583939  0.77535694  1
  C  C612  1  0.63155163  0.68204540  0.93769081  1
  C  C613  1  0.77262642  0.84441400  0.92845716  1
  C  C614  1  0.83943905  0.91425343  0.75560949  1
  Cu  Cu615  1  0.53749273  0.60094908  0.89469013  1
  C  C616  1  0.96843785  0.57300293  0.75261378  1
  C  C617  1  0.52792291  0.95210978  0.89122566  1
  H  H618  1  0.52682645  0.83411685  0.83246072  1
  H  H619  1  0.72809937  0.69953154  0.99818485  1
  O  O620  1  0.72008721  0.73437686  0.76087793  1
  C  C621  1  0.80629461  0.53705502  0.85823979  1
  O  O622  1  0.93171805  0.83310588  0.75507671  1
  C  C623  1  0.84545028  0.50154418  0.94262536  1
