# generated using pymatgen
data_Cu3H28C40(NO)8
_symmetry_space_group_name_H-M   'P 1'
_cell_length_a   24.21692056
_cell_length_b   25.92959266
_cell_length_c   11.13176783
_cell_angle_alpha   90.00000000
_cell_angle_beta   90.00000000
_cell_angle_gamma   90.00000000
_symmetry_Int_Tables_number   1
_chemical_formula_structural   Cu3H28C40(NO)8
_chemical_formula_sum   'Cu24 H224 C320 N64 O64'
_cell_volume   6990.02536055
_cell_formula_units_Z   8
loop_
 _symmetry_equiv_pos_site_id
 _symmetry_equiv_pos_as_xyz
  1  'x, y, z'
loop_
 _atom_site_type_symbol
 _atom_site_label
 _atom_site_symmetry_multiplicity
 _atom_site_fract_x
 _atom_site_fract_y
 _atom_site_fract_z
 _atom_site_occupancy
  H  H0  1  0.34400821  0.03633350  0.48074642  1
  Cu  Cu1  1  0.17680081  0.14789464  0.31516581  1
  O  O2  1  0.41948522  0.09650785  0.35119095  1
  C  C3  1  0.27818678  0.07542018  0.38019543  1
  O  O4  1  0.21682929  0.04540963  0.14424296  1
  O  O5  1  0.49149619  0.04611375  0.32112398  1
  N  N6  1  0.48615841  0.10809176  0.08529020  1
  C  C7  1  0.34839713  0.20920267  0.33841265  1
  O  O8  1  0.03957852  0.13300236  0.39458427  1
  H  H9  1  0.11822253  0.07055259  0.14650761  1
  H  H10  1  0.29047394  0.07182982  0.28239810  1
  C  C11  1  0.07404635  0.06060561  0.14104050  1
  C  C12  1  0.40960372  0.20720562  0.02882748  1
  C  C13  1  0.03768440  0.08125116  0.22792361  1
  O  O14  1  0.12074021  0.10126276  0.34183017  1
  C  C15  1  0.30689365  0.05704267  0.47679019  1
  C  C16  1  0.06609528  0.10781151  0.32998613  1
  O  O17  1  0.39885513  0.01964741  0.06692162  1
  O  O18  1  0.09786763  0.21255504  0.15285643  1
  O  O19  1  0.35079080  0.08574258  0.13568298  1
  H  H20  1  0.06449365  0.14416481  0.00426705  1
  N  N21  1  0.39771404  0.23510403  0.32363709  1
  Cu  Cu22  1  0.39840656  0.13573056  0.21219305  1
  N  N23  1  0.16365604  0.19408063  0.47078576  1
  C  C24  1  0.20383396  0.08840129  0.11360213  1
  O  O25  1  0.21421306  0.12862290  0.18412317  1
  C  C26  1  0.42370976  0.23543744  0.43066653  1
  H  H27  1  0.31710202  0.20427065  0.26498739  1
  C  C28  1  0.34886463  0.18806872  0.45186825  1
  C  C29  1  0.36380200  0.05428261  0.04753864  1
  C  C30  1  0.04917791  0.22790660  0.14849875  1
  C  C31  1  0.46289936  0.07444100  0.39034242  1
  C  C32  1  0.02048562  0.15758673  0.00301986  1
  Cu  Cu33  1  0.44837501  0.02972654  0.19831980  1
  O  O34  1  0.44995542  0.23117899  0.08008167  1
  N  N35  1  0.23393747  0.10375565  0.41708376  1
  O  O36  1  0.37651103  0.17698713  0.08485429  1
  C  C37  1  0.00732610  0.20066830  0.07982279  1
  H  H38  1  0.16144436  0.17645576  0.02153723  1
  Cu  Cu39  1  0.14966434  0.23863232  0.26606747  1
  Cu  Cu40  1  0.49687257  0.20345612  0.19214838  1
  C  C41  1  0.05376692  0.03417996  0.04167988  1
  H  H42  1  0.31550721  0.16906841  0.50028397  1
  C  C43  1  0.02892335  0.13017566  0.70767040  1
  H  H44  1  0.08287998  0.02039079  0.97637563  1
  H  H45  1  0.40672644  0.11163903  0.77333525  1
  C  C46  1  0.14806472  0.05193244  0.81206155  1
  C  C47  1  0.36545161  0.17950428  0.83860329  1
  H  H48  1  0.03058195  0.16261309  0.77061191  1
  H  H49  1  0.33885663  0.15606190  0.89873418  1
  C  C50  1  0.36799761  0.03136146  0.82983059  1
  H  H51  1  0.08734463  0.02744451  0.59628462  1
  C  C52  1  0.34072546  0.05777897  0.92708145  1
  H  H53  1  0.36321063  0.00965849  0.64538229  1
  C  C54  1  0.17859426  0.04972331  0.91884062  1
  C  C55  1  0.12036384  0.09921335  0.78880201  1
  N  N56  1  0.07433724  0.09795350  0.70962324  1
  H  H57  1  0.32737528  0.15453466  0.67192545  1
  N  N58  1  0.01112673  0.06542420  0.58532068  1
  C  C59  1  0.40412485  0.21073195  0.90057696  1
  C  C60  1  0.29912516  0.06714736  0.69672666  1
  C  C61  1  0.15667293  0.14205560  0.96127801  1
  N  N62  1  0.49850930  0.07837473  0.90105568  1
  H  H63  1  0.14147041  0.01771772  0.75097455  1
  C  C64  1  0.19587866  0.22927955  0.52861138  1
  C  C65  1  0.12936915  0.14689401  0.85218094  1
  H  H66  1  0.43063422  0.12994254  0.93779303  1
  N  N67  1  0.28115797  0.07593709  0.57701628  1
  H  H68  1  0.19960488  0.11613986  0.59138880  1
  C  C69  1  0.07295658  0.24129786  0.70855382  1
  C  C70  1  0.43637797  0.23872064  0.70412290  1
  C  C71  1  0.44029362  0.09635106  0.71699822  1
  N  N72  1  0.11764346  0.22519197  0.62717828  1
  C  C73  1  0.39508716  0.20883034  0.64200260  1
  H  H74  1  0.23199712  0.11611478  0.77227938  1
  C  C75  1  0.43665552  0.10080727  0.59290656  1
  C  C76  1  0.35975149  0.17776648  0.71599424  1
  C  C77  1  0.28991921  0.08360559  0.90864459  1
  C  C78  1  0.06111429  0.05870397  0.62853482  1
  H  H79  1  0.40236516  0.12304120  0.54585163  1
  C  C80  1  0.34653218  0.03394596  0.71616351  1
  C  C81  1  0.27168999  0.09197970  0.79054500  1
  H  H82  1  0.11093115  0.18298847  0.81866040  1
  C  C83  1  0.23345329  0.10126770  0.53701321  1
  C  C84  1  0.11623596  0.19105157  0.53383821  1
  H  H85  1  0.04857106  0.01907729  0.82653688  1
  H  H86  1  0.19821432  0.01632072  0.94752838  1
  C  C87  1  0.48786665  0.07481224  0.77367313  1
  C  C88  1  0.44038722  0.24175601  0.82948080  1
  C  C89  1  0.46536971  0.10704585  0.97722802  1
  N  N90  1  0.39232516  0.20929235  0.51261412  1
  C  C91  1  0.47477520  0.07354741  0.51813730  1
  H  H92  1  0.40464687  0.01008094  0.85771659  1
  H  H93  1  0.00530079  0.21211597  0.59742152  1
  C  C94  1  0.01685129  0.23599749  0.67289628  1
  C  C95  1  0.17974862  0.09426840  0.99283333  1
  H  H96  1  0.24061414  0.23393549  0.50385890  1
  H  H97  1  0.26987623  0.09888377  0.99090128  1
  H  H98  1  0.08550016  0.15927403  0.52256797  1
  H  H99  1  0.32102111  0.31555560  0.34577966  1
  O  O100  1  0.48721144  0.45455791  0.21284004  1
  Cu  Cu101  1  0.43417636  0.27833177  0.18564109  1
  N  N102  1  0.26156502  0.36465071  0.43181818  1
  O  O103  1  0.12040264  0.39434336  0.41044532  1
  C  C104  1  0.41905111  0.45003299  0.36441304  1
  H  H105  1  0.41472861  0.38163665  0.12184289  1
  C  C106  1  0.29819387  0.32626336  0.42597945  1
  O  O107  1  0.44133807  0.32812497  0.30348263  1
  O  O108  1  0.19360638  0.27483831  0.16239178  1
  C  C109  1  0.44064035  0.37014279  0.04463223  1
  H  H110  1  0.33164989  0.46189254  0.32737712  1
  O  O111  1  0.40013489  0.46795270  0.16166358  1
  C  C112  1  0.43517519  0.45529861  0.23920626  1
  O  O113  1  0.03785501  0.27225948  0.19598624  1
  Cu  Cu114  1  0.05593181  0.29953213  0.34304642  1
  C  C115  1  0.46072099  0.44292783  0.44910789  1
  C  C116  1  0.17994064  0.30892126  0.08875612  1
  O  O117  1  0.14040405  0.34072099  0.11124725  1
  C  C118  1  0.36232458  0.45544302  0.39443248  1
  N  N119  1  0.49812070  0.37034775  0.05342822  1
  C  C120  1  0.13572786  0.47767692  0.14208460  1
  Cu  Cu121  1  0.12952022  0.36604173  0.26512621  1
  C  C122  1  0.48757748  0.33268360  0.35476551  1
  N  N123  1  0.18066191  0.48851603  0.20213139  1
  H  H124  1  0.46104108  0.25770579  0.45785855  1
  C  C125  1  0.09352309  0.37113538  0.49382224  1
  O  O126  1  0.06984047  0.32924373  0.48362828  1
  H  H127  1  0.09608094  0.48916370  0.18583193  1
  H  H128  1  0.39915448  0.34657041  0.49085883  1
  C  C129  1  0.13807590  0.46310281  0.01823436  1
  C  C130  1  0.48757166  0.33392498  0.48499431  1
  N  N131  1  0.26574182  0.33206346  0.61519913  1
  C  C132  1  0.20413790  0.35602081  0.78009548  1
  H  H133  1  0.29340732  0.41417660  0.72204351  1
  C  C134  1  0.25105161  0.28063362  0.92825200  1
  C  C135  1  0.10168921  0.43648203  0.84656844  1
  H  H136  1  0.05943399  0.31198316  0.96383743  1
  H  H137  1  0.14142963  0.46465261  0.55750764  1
  H  H138  1  0.15407620  0.49634927  0.75846324  1
  C  C139  1  0.06379292  0.37200813  0.70456300  1
  C  C140  1  0.09217586  0.39767310  0.61192305  1
  C  C141  1  0.32444105  0.43337766  0.77530105  1
  H  H142  1  0.47743612  0.43432748  0.64185083  1
  C  C143  1  0.26762887  0.28451780  0.81243128  1
  N  N144  1  0.47609758  0.35356920  0.86688810  1
  C  C145  1  0.24828276  0.32373858  0.73694283  1
  C  C146  1  0.42801045  0.36434744  0.92572738  1
  C  C147  1  0.12572566  0.46393510  0.74705266  1
  C  C148  1  0.04986895  0.29218332  0.87951020  1
  H  H149  1  0.04065805  0.33528416  0.68433569  1
  C  C150  1  0.38972828  0.44335232  0.60120301  1
  H  H151  1  0.17599995  0.28382785  0.68180970  1
  C  C152  1  0.43579926  0.34079810  0.54633555  1
  C  C153  1  0.23855295  0.36665868  0.54126789  1
  H  H154  1  0.17755835  0.45799330  0.96759160  1
  C  C155  1  0.12102504  0.44337605  0.63311396  1
  C  C156  1  0.48093244  0.34240580  0.74247316  1
  C  C157  1  0.32432337  0.44493259  0.89837112  1
  C  C158  1  0.18535622  0.35085904  0.89678374  1
  C  C159  1  0.06626822  0.39277337  0.81692643  1
  H  H160  1  0.30544329  0.45133636  0.54110706  1
  H  H161  1  0.20292685  0.39306839  0.56389307  1
  H  H162  1  0.38890673  0.36239329  0.88526773  1
  C  C163  1  0.16670182  0.25087778  0.62400202  1
  H  H164  1  0.39179592  0.35337747  0.71381356  1
  H  H165  1  0.17983851  0.38182246  0.72352048  1
  N  N166  1  0.37204007  0.47089603  0.92031540  1
  C  C167  1  0.30285767  0.30668885  0.54293386  1
  N  N168  1  0.09196860  0.45224369  0.96263387  1
  C  C169  1  0.43216104  0.34531611  0.67208392  1
  N  N170  1  0.37421092  0.44889293  0.72798849  1
  H  H171  1  0.32669123  0.27146966  0.56451993  1
  C  C172  1  0.40311414  0.46985334  0.81978650  1
  H  H173  1  0.04456689  0.37234087  0.88678631  1
  C  C174  1  0.09194707  0.26698305  0.81511762  1
  C  C175  1  0.44600969  0.43955070  0.57066638  1
  H  H176  1  0.15219807  0.37591210  0.93316453  1
  H  H177  1  0.44497123  0.48721988  0.80598590  1
  H  H178  1  0.13621540  0.27166108  0.84707475  1
  H  H179  1  0.29610824  0.43305012  0.96826995  1
  H  H180  1  0.45943707  0.26518049  0.64354559  1
  H  H181  1  0.29995034  0.25861836  0.78177104  1
  C  C182  1  0.20543070  0.31117647  0.97119766  1
  H  H183  1  0.47122887  0.27021730  0.86716697  1
  C  C184  1  0.34752077  0.45102118  0.51378791  1
  H  H185  1  0.26666300  0.25266000  0.99560579  1
  C  C186  1  0.41290384  0.68978165  0.41268430  1
  C  C187  1  0.17359492  0.51349177  0.30230636  1
  C  C188  1  0.00534454  0.70887457  0.46010514  1
  Cu  Cu189  1  0.41859496  0.51369768  0.04681051  1
  C  C190  1  0.36233642  0.61960919  0.32747598  1
  C  C191  1  0.03682371  0.57198268  0.46280936  1
  C  C192  1  0.31640103  0.62365338  0.40903168  1
  C  C193  1  0.41037235  0.64988701  0.33609624  1
  H  H194  1  0.21255884  0.51334089  0.35586052  1
  O  O195  1  0.13011901  0.53027113  0.34553172  1
  N  N196  1  0.03831663  0.57599430  0.04416402  1
  C  C197  1  0.05397745  0.59642559  0.14964369  1
  O  O198  1  0.31352012  0.56148371  0.20495007  1
  C  C199  1  0.11046998  0.60303089  0.13726262  1
  H  H200  1  0.45175724  0.53885351  0.47748312  1
  H  H201  1  0.44514589  0.64174002  0.27543835  1
  N  N202  1  0.18699414  0.73996579  0.19403518  1
  C  C203  1  0.36728133  0.69724594  0.49105460  1
  H  H204  1  0.47372593  0.58354183  0.29252772  1
  H  H205  1  0.44505012  0.72114292  0.41222554  1
  H  H206  1  0.27813269  0.60144686  0.40112692  1
  C  C207  1  0.03684538  0.72842615  0.14899564  1
  H  H208  1  0.03693124  0.55812145  0.37209346  1
  C  C209  1  0.35744514  0.58071851  0.22810567  1
  C  C210  1  0.13421340  0.73157497  0.13730917  1
  H  H211  1  0.13925337  0.62155289  0.20343509  1
  C  C212  1  0.13001987  0.71587014  0.01566708  1
  C  C213  1  0.08632383  0.73480324  0.20810779  1
  H  H214  1  0.08784396  0.74149683  0.31001392  1
  O  O215  1  0.40205318  0.57422408  0.14869425  1
  O  O216  1  0.42290907  0.67986942  0.09963540  1
  C  C217  1  0.46530480  0.70605402  0.13183478  1
  H  H218  1  0.02314319  0.60892625  0.21718721  1
  C  C219  1  0.03367726  0.71543878  0.02628333  1
  C  C220  1  0.13863082  0.55387056  0.47891444  1
  H  H221  1  0.28168268  0.73538559  0.39851485  1
  C  C222  1  0.19784890  0.73713743  0.31304684  1
  C  C223  1  0.25529555  0.74038375  0.31823787  1
  H  H224  1  0.16816413  0.73530747  0.38725157  1
  C  C225  1  0.31909226  0.66388677  0.49247483  1
  C  C226  1  0.23716472  0.74282201  0.12869879  1
  H  H227  1  0.24229229  0.74254756  0.03200424  1
  H  H228  1  0.36845998  0.74766835  0.16963714  1
  N  N229  1  0.27798793  0.73984246  0.20825818  1
  Cu  Cu230  1  0.42403101  0.61803877  0.01942341  1
  N  N231  1  0.12780201  0.58609345  0.03067920  1
  C  C232  1  0.06003002  0.70827441  0.48792421  1
  C  C233  1  0.08133599  0.70547843  0.95743917  1
  H  H234  1  0.41627784  0.54415773  0.68773510  1
  C  C235  1  0.46084613  0.54749352  0.66597208  1
  C  C236  1  0.48468833  0.56125257  0.88288610  1
  H  H237  1  0.49370379  0.72792224  0.55699586  1
  C  C238  1  0.08999622  0.58608168  0.65498108  1
  H  H239  1  0.31236333  0.72476166  0.72776919  1
  H  H240  1  0.07835894  0.68785857  0.86602968  1
  H  H241  1  0.28607457  0.67116225  0.55691011  1
  N  N242  1  0.22361117  0.72725079  0.59972343  1
  H  H243  1  0.04186662  0.60996944  0.81041923  1
  C  C244  1  0.04254954  0.59988699  0.71765913  1
  H  H245  1  0.42785481  0.65150362  0.66661102  1
  O  O246  1  0.43500463  0.55946492  0.92289349  1
  C  C247  1  0.08663140  0.57307095  0.53085272  1
  N  N248  1  0.36960436  0.74116481  0.56582577  1
  O  O249  1  0.18228724  0.55594210  0.52322795  1
  H  H250  1  0.15509410  0.67438110  0.57589462  1
  H  H251  1  0.01225206  0.52251920  0.84183373  1
  H  H252  1  0.16641889  0.71275583  0.95826982  1
  C  C253  1  0.17264212  0.71307971  0.56790947  1
  H  H254  1  0.08722353  0.54587917  0.88724873  1
  C  C255  1  0.46674751  0.66738701  0.71078690  1
  N  N256  1  0.46244303  0.69092919  0.81771542  1
  C  C257  1  0.49973125  0.55705767  0.75824708  1
  H  H258  1  0.12967777  0.57979248  0.70495614  1
  C  C259  1  0.34217554  0.74794319  0.67251276  1
  C  C260  1  0.47973124  0.54690969  0.55058944  1
  H  H261  1  0.08113355  0.67150300  0.51035884  1
  C  C262  1  0.08387438  0.56585348  0.97478880  1
  C  C263  1  0.15242100  0.89737396  0.20924833  1
  H  H264  1  0.33119449  0.94212575  0.11594345  1
  C  C265  1  0.39095301  0.81967188  0.25156038  1
  C  C266  1  0.06520264  0.96126644  0.45867670  1
  H  H267  1  0.44464758  0.91674556  0.07059298  1
  C  C268  1  0.29486852  0.92249608  0.15007850  1
  H  H269  1  0.42905797  0.78252097  0.45721017  1
  C  C270  1  0.40221724  0.77358451  0.19915693  1
  C  C271  1  0.04230160  0.88851302  0.20518243  1
  C  C272  1  0.06493995  0.93717106  0.19158061  1
  C  C273  1  0.00708402  0.80526598  0.44730313  1
  C  C274  1  0.24853121  0.85588864  0.21380075  1
  H  H275  1  0.34704370  0.83290789  0.26044434  1
  C  C276  1  0.12176260  0.94383027  0.19880923  1
  C  C277  1  0.45813320  0.75638211  0.18454851  1
  N  N278  1  0.42605561  0.89433318  0.36614594  1
  C  C279  1  0.06248866  0.80834769  0.47394632  1
  C  C280  1  0.43596524  0.84804720  0.29953890  1
  H  H281  1  0.15124992  0.97754094  0.42936868  1
  H  H282  1  0.14440775  0.98140579  0.18452834  1
  N  N283  1  0.21287490  0.89679899  0.20266488  1
  H  H284  1  0.15475719  0.81411428  0.26281370  1
  H  H285  1  0.23548469  0.81796116  0.25086720  1
  H  H286  1  0.08447091  0.84541944  0.49362519  1
  C  C287  1  0.07314392  0.84354293  0.23556739  1
  C  C288  1  0.13015370  0.84777792  0.24045019  1
  C  C289  1  0.24075492  0.93809577  0.15405685  1
  N  N290  1  0.29874473  0.87243813  0.18866306  1
  H  H291  1  0.03549803  0.96903418  0.16752958  1
  H  H292  1  0.05063419  0.80610735  0.25628216  1
  H  H293  1  0.33614824  0.90874207  0.34084907  1
  H  H294  1  0.05362749  0.98816402  0.38627915  1
  H  H295  1  0.22503880  0.94320597  0.44304167  1
  C  C296  1  0.12140115  0.95717950  0.48701752  1
  C  C297  1  0.37506666  0.91824873  0.38448286  1
  C  C298  1  0.46614469  0.91971942  0.43152747  1
  H  H299  1  0.21818092  0.97602971  0.12997612  1
  C  C300  1  0.49247850  0.83466712  0.27929825  1
  C  C301  1  0.48851510  0.92701486  0.08265339  1
  H  H302  1  0.15832636  0.88476210  0.00925243  1
  H  H303  1  0.05999498  0.88002148  0.00208213  1
  C  C304  1  0.08612845  0.75914388  0.49844357  1
  C  C305  1  0.43782621  0.95999019  0.48591123  1
  N  N306  1  0.38420223  0.95793251  0.45356987  1
  H  H307  1  0.32421470  0.93515710  0.56315167  1
  C  C308  1  0.21676673  0.91841820  0.72813119  1
  O  O309  1  0.41161939  0.83657489  0.90231876  1
  C  C310  1  0.42151248  0.87924779  0.85430252  1
  O  O311  1  0.25238304  0.87560451  0.94716834  1
  H  H312  1  0.01138354  0.75689136  0.69410205  1
  C  C313  1  0.22897335  0.77813699  0.58774123  1
  Cu  Cu314  1  0.34301254  0.81697446  0.88794257  1
  C  C315  1  0.40633683  0.78081424  0.54151981  1
  H  H316  1  0.18128186  0.76171315  0.75982253  1
  C  C317  1  0.40079153  0.81101994  0.64002023  1
  C  C318  1  0.23403579  0.93728194  0.53432067  1
  C  C319  1  0.09870096  0.78193103  0.81407987  1
  C  C320  1  0.09419092  0.89791842  0.64925218  1
  C  C321  1  0.01031751  0.99996831  0.82828269  1
  C  C322  1  0.17681166  0.79819672  0.55318687  1
  C  C323  1  0.17696020  0.82435839  0.89577649  1
  C  C324  1  0.47660028  0.88394343  0.79890116  1
  C  C325  1  0.03978308  0.89904364  0.62003111  1
  C  C326  1  0.13535844  0.92924380  0.58949645  1
  C  C327  1  0.06021476  0.81384708  0.87435035  1
  C  C328  1  0.28229229  0.93156564  0.59791233  1
  N  N329  1  0.19248469  0.93048907  0.61855771  1
  C  C330  1  0.08168122  0.85155146  0.95291643  1
  N  N331  1  0.27182287  0.92085899  0.71677280  1
  H  H332  1  0.19619087  0.91116996  0.81195452  1
  N  N333  1  0.14206183  0.75743467  0.54058343  1
  H  H334  1  0.42181972  0.84647363  0.66827251  1
  O  O335  1  0.26832121  0.79990034  0.86629976  1
  H  H336  1  0.10383595  0.87424903  0.72971423  1
  C  C337  1  0.23571142  0.83190728  0.90626854  1
  O  O338  1  0.39043442  0.91813994  0.85338518  1
  H  H339  1  0.47540687  0.96863144  0.78298342  1
  Cu  Cu340  1  0.31404004  0.91425860  0.87983719  1
  N  N341  1  0.36433329  0.78914768  0.72215834  1
  C  C342  1  0.15579770  0.78611427  0.81681892  1
  H  H343  1  0.26670755  0.80165390  0.61165331  1
  C  C344  1  0.13847503  0.85549095  0.95862141  1
  H  H345  1  0.00717210  0.87907196  0.67059757  1
  C  C346  1  0.02637859  0.93293830  0.52126530  1
  H  H347  1  0.48603484  0.80193109  0.83952838  1
  C  C348  1  0.49816661  0.93301351  0.76689957  1
  H  H349  1  0.07983760  0.75303427  0.75103831  1
  H  H350  1  0.16058086  0.83900658  0.53966378  1
  N  N351  1  0.00156625  0.80518329  0.84964924  1
  H  H352  1  0.45332257  0.99432588  0.54433722  1
  H  H353  1  0.74216581  0.04465851  0.38327364  1
  C  C354  1  0.95883761  0.04561536  0.12206873  1
  C  C355  1  0.60854603  0.22757321  0.05211354  1
  C  C356  1  0.58796904  0.19304341  0.36230872  1
  O  O357  1  0.65430379  0.11167840  0.20378478  1
  C  C358  1  0.53298610  0.07852686  0.08973384  1
  C  C359  1  0.85229700  0.06676263  0.45621723  1
  H  H360  1  0.55842825  0.07501208  0.17110020  1
  H  H361  1  0.98247697  0.19170708  0.32366700  1
  C  C362  1  0.96372160  0.22347435  0.38151392  1
  C  C363  1  0.88126637  0.13885780  0.32902123  1
  C  C364  1  0.98063877  0.07442745  0.21800229  1
  H  H365  1  0.95433027  0.08761245  0.29651381  1
  O  O366  1  0.63369561  0.20021527  0.31094862  1
  H  H367  1  0.82347537  0.13500279  0.08896042  1
  Cu  Cu368  1  0.69403060  0.14499881  0.31184955  1
  C  C369  1  0.72118195  0.05520766  0.47019886  1
  C  C370  1  0.88265415  0.16860976  0.43870719  1
  C  C371  1  0.86528459  0.08675650  0.34115999  1
  N  N372  1  0.72553230  0.18481979  0.16486306  1
  C  C373  1  0.66420060  0.06375246  0.15930230  1
  H  H374  1  0.90022689  0.15220328  0.24405318  1
  N  N375  1  0.91666627  0.21461821  0.44909071  1
  H  H376  1  0.86230803  0.06117855  0.26094147  1
  C  C377  1  0.74935118  0.23235816  0.18210520  1
  C  C378  1  0.75417530  0.21648722  0.47997885  1
  C  C379  1  0.95441329  0.22301423  0.07971423  1
  O  O380  1  0.68016076  0.03136378  0.22504564  1
  H  H381  1  0.91544353  0.03534077  0.11915966  1
  N  N382  1  0.68410653  0.09406592  0.46099202  1
  O  O383  1  0.54519442  0.17366885  0.31177788  1
  O  O384  1  0.74244442  0.17707772  0.41072116  1
  C  C385  1  0.73323314  0.17143438  0.05109083  1
  C  C386  1  0.91284259  0.19517667  0.02112508  1
  H  H387  1  0.87113536  0.21034048  0.02765329  1
  N  N388  1  0.55363668  0.21429244  0.05189277  1
  C  C389  1  0.99485582  0.02688389  0.03080290  1
  C  C390  1  0.84487665  0.01093344  0.46807418  1
  H  H391  1  0.75518799  0.24939658  0.27333764  1
  C  C392  1  0.58579650  0.20217142  0.49077210  1
  H  H393  1  0.67299023  0.23112461  0.49404083  1
  H  H394  1  0.63266185  0.23339996  0.13612439  1
  C  C395  1  0.65796969  0.05945217  0.02010140  1
  H  H396  1  0.62412548  0.13755259  0.00315818  1
  C  C397  1  0.83191669  0.10899132  0.01523972  1
  H  H398  1  0.72100144  0.13439876  0.02093877  1
  C  C399  1  0.63682419  0.10133374  0.95383661  1
  C  C400  1  0.64066531  0.09792047  0.83234962  1
  C  C401  1  0.98962015  0.10934605  0.63159894  1
  H  H402  1  0.56507770  0.03998158  0.73512117  1
  C  C403  1  0.66009330  0.10034672  0.56914248  1
  H  H404  1  0.83567102  0.08284043  0.64341462  1
  C  C405  1  0.53928187  0.20521151  0.93827367  1
  C  C406  1  0.80026086  0.06869193  0.96934055  1
  C  C407  1  0.71442656  0.03086603  0.57912878  1
  C  C408  1  0.53614272  0.19351591  0.67579829  1
  H  H409  1  0.50122728  0.18457801  0.91610176  1
  C  C410  1  0.67470875  0.01316533  0.96485143  1
  H  H411  1  0.74574904  0.13410834  0.85443593  1
  C  C412  1  0.63336062  0.22368901  0.54791810  1
  C  C413  1  0.84770983  0.09776172  0.56016529  1
  C  C414  1  0.52265139  0.05174305  0.57037185  1
  H  H415  1  0.90492871  0.06479832  0.79367275  1
  C  C416  1  0.98072153  0.13127638  0.94423713  1
  C  C417  1  0.92400774  0.14818732  0.95827616  1
  H  H418  1  0.74456200  0.12667305  0.62622497  1
  H  H419  1  0.98997869  0.09473424  0.89463343  1
  H  H420  1  0.62810042  0.12900469  0.60288165  1
  H  H421  1  0.57437377  0.03561577  0.93831174  1
  N  N422  1  0.87938653  0.11152379  0.94804007  1
  H  H423  1  0.85786681  0.17468874  0.63458286  1
  H  H424  1  0.76035644  0.05297328  0.99660748  1
  H  H425  1  0.94940119  0.12376137  0.60596988  1
  C  C426  1  0.52667549  0.05286607  0.69219630  1
  C  C427  1  0.68117323  0.01350979  0.84013286  1
  H  H428  1  0.62963106  0.13297924  0.77424211  1
  C  C429  1  0.75215838  0.16753364  0.79881157  1
  C  C430  1  0.75877231  0.21014575  0.61376884  1
  C  C431  1  0.87617869  0.07096122  0.86674884  1
  C  C432  1  0.86405600  0.14941718  0.55374107  1
  C  C433  1  0.75058008  0.16342915  0.67618257  1
  N  N434  1  0.58133147  0.21535087  0.86200568  1
  H  H435  1  0.66682558  0.24437854  0.72606956  1
  N  N436  1  0.82953560  0.04649949  0.87841293  1
  C  C437  1  0.66463045  0.05661276  0.76835440  1
  C  C438  1  0.58323522  0.21495905  0.73324829  1
  C  C439  1  0.76161391  0.21533149  0.86078185  1
  N  N440  1  0.67647135  0.06022354  0.64415052  1
  C  C441  1  0.62537364  0.22955836  0.93440727  1
  C  C442  1  0.53588571  0.18964011  0.54839390  1
  C  C443  1  0.54009981  0.06013969  0.97072125  1
  C  C444  1  0.63259687  0.23022023  0.67281364  1
  N  N445  1  0.75468359  0.21318219  0.98898744  1
  H  H446  1  0.50208838  0.17977683  0.73027578  1
  N  N447  1  0.97697355  0.00025663  0.92973284  1
  H  H448  1  0.66410345  0.23600768  0.89047163  1
  H  H449  1  0.50287353  0.16952104  0.50556199  1
  H  H450  1  0.55427670  0.03221846  0.52097168  1
  H  H451  1  0.50600229  0.44145641  0.42581773  1
  C  C452  1  0.81875407  0.43938167  0.36483004  1
  C  C453  1  0.67224948  0.37507123  0.38514141  1
  C  C454  1  0.82442943  0.39717150  0.16984076  1
  C  C455  1  0.76638775  0.25028150  0.07210135  1
  H  H456  1  0.75409222  0.44162826  0.23509248  1
  Cu  Cu457  1  0.51390344  0.47646293  0.06094104  1
  C  C458  1  0.88127811  0.38891883  0.18265985  1
  H  H459  1  0.90141272  0.37268386  0.09990313  1
  C  C460  1  0.79669863  0.38469346  0.05483904  1
  O  O461  1  0.76004059  0.26038957  0.44385392  1
  H  H462  1  0.69144781  0.38286273  0.18851288  1
  O  O463  1  0.58579602  0.49301883  0.11718640  1
  C  C464  1  0.64366286  0.40195322  0.47834174  1
  H  H465  1  0.94734216  0.25523754  0.14238067  1
  H  H466  1  0.78166023  0.28778273  0.04056085  1
  O  O467  1  0.53125857  0.33401326  0.29094970  1
  O  O468  1  0.65254835  0.44541111  0.05263179  1
  C  C469  1  0.63001319  0.43531463  0.25702163  1
  C  C470  1  0.67002172  0.39581266  0.27240686  1
  H  H471  1  0.79928202  0.46706582  0.43052983  1
  O  O472  1  0.74707567  0.39969726  0.03615220  1
  C  C473  1  0.90796905  0.39480160  0.28890244  1
  C  C474  1  0.79523109  0.42652453  0.25704530  1
  C  C475  1  0.62181543  0.45949934  0.14027718  1
  C  C476  1  0.59658146  0.45778269  0.35072865  1
  N  N477  1  0.98374973  0.26964298  0.41540424  1
  H  H478  1  0.95164340  0.38755029  0.29577221  1
  Cu  Cu479  1  0.54282736  0.39719694  0.20155581  1
  C  C480  1  0.87343133  0.41907904  0.37560702  1
  C  C481  1  0.60477855  0.44326096  0.46629933  1
  H  H482  1  0.70115447  0.34147836  0.39759301  1
  H  H483  1  0.98138240  0.44985444  0.46395814  1
  H  H484  1  0.56938331  0.48987246  0.32831180  1
  C  C485  1  0.94813154  0.28915296  0.49962127  1
  N  N486  1  0.89817897  0.42375333  0.49664413  1
  O  O487  1  0.79086393  0.49831398  0.01840641  1
  Cu  Cu488  1  0.72143353  0.46963248  0.03273580  1
  C  C489  1  0.87013616  0.41478314  0.59832926  1
  C  C490  1  0.53571466  0.33376902  0.55707916  1
  H  H491  1  0.82531890  0.40588239  0.59340432  1
  H  H492  1  0.93532020  0.27021965  0.70236900  1
  C  C493  1  0.95488229  0.33056911  0.89460762  1
  H  H494  1  0.78000612  0.30054667  0.84952414  1
  O  O495  1  0.90838766  0.33477127  0.83360096  1
  H  H496  1  0.56474217  0.35603904  0.92485080  1
  N  N497  1  0.65942404  0.38913106  0.59882458  1
  O  O498  1  0.83160243  0.45466031  0.86554850  1
  C  C499  1  0.95030791  0.44053737  0.52803138  1
  N  N500  1  0.90346660  0.42045110  0.69644725  1
  H  H501  1  0.71144432  0.31854692  0.56004448  1
  C  C502  1  0.83257597  0.48829630  0.95281756  1
  H  H503  1  0.67102500  0.38350771  0.89738363  1
  H  H504  1  0.86795062  0.25758981  0.58424679  1
  H  H505  1  0.57017201  0.32605602  0.73817902  1
  C  C506  1  0.77002951  0.25556554  0.67820737  1
  C  C507  1  0.67374497  0.38201596  0.79665306  1
  C  C508  1  0.69089208  0.34626622  0.62330451  1
  C  C509  1  0.95430871  0.43641039  0.65265594  1
  H  H510  1  0.58745144  0.46165229  0.54835316  1
  O  O511  1  0.82473120  0.36085204  0.97918028  1
  H  H512  1  0.57370154  0.33035429  0.51198001  1
  C  C513  1  0.53317855  0.33613529  0.68260254  1
  N  N514  1  0.69749261  0.34193917  0.74233124  1
  C  C515  1  0.64749820  0.41116077  0.70917793  1
  C  C516  1  0.77547134  0.26290457  0.80318245  1
  C  C517  1  0.51998290  0.35897432  0.94788856  1
  H  H518  1  0.61714170  0.44318105  0.71912234  1
  H  H519  1  0.92200989  0.48071320  0.80553514  1
  Cu  Cu520  1  0.86660295  0.39396939  0.85453195  1
  H  H521  1  0.77591031  0.29139262  0.62922654  1
  C  C522  1  0.97778804  0.26949698  0.72947810  1
  H  H523  1  0.94770620  0.32982898  0.53038560  1
  C  C524  1  0.99530321  0.29475746  0.83497438  1
  C  C525  1  0.90641058  0.25390490  0.52496614  1
  H  H526  1  0.76066522  0.49436790  0.81143539  1
  H  H527  1  0.99217548  0.44001745  0.70775876  1
  O  O528  1  0.96527391  0.35152298  0.98691047  1
  H  H529  1  0.98110272  0.67329180  0.45070972  1
  Cu  Cu530  1  0.87937844  0.69368679  0.23582898  1
  C  C531  1  0.78041119  0.69623601  0.10671732  1
  O  O532  1  0.51353846  0.68747395  0.11638446  1
  O  O533  1  0.78206511  0.65582711  0.03805769  1
  C  C534  1  0.85963540  0.59291883  0.33854323  1
  C  C535  1  0.72948516  0.71187399  0.16393861  1
  O  O536  1  0.90112274  0.56701421  0.32164180  1
  H  H537  1  0.94452794  0.59645345  0.15814079  1
  C  C538  1  0.60341317  0.57130165  0.35898977  1
  O  O539  1  0.84777898  0.62997548  0.26594807  1
  C  C540  1  0.82642336  0.58008291  0.44616744  1
  C  C541  1  0.51847751  0.58740560  0.30160352  1
  O  O542  1  0.89469543  0.71735419  0.39498351  1
  C  C543  1  0.77625390  0.61004766  0.45049889  1
  C  C544  1  0.67771135  0.68648300  0.14456786  1
  O  O545  1  0.82479314  0.72038231  0.12602371  1
  H  H546  1  0.63678603  0.55651751  0.41353708  1
  Cu  Cu547  1  0.52594389  0.62752863  0.04200327  1
  C  C548  1  0.63144423  0.70161045  0.20811358  1
  H  H549  1  0.67162533  0.65809414  0.06414460  1
  N  N550  1  0.54958042  0.59546077  0.20558783  1
  H  H551  1  0.84602539  0.55567228  0.11846786  1
  H  H552  1  0.59373097  0.67839191  0.19795292  1
  C  C553  1  0.93491839  0.57191990  0.07879813  1
  H  H554  1  0.55288753  0.67672390  0.36928992  1
  C  C555  1  0.60359721  0.58458773  0.23865464  1
  H  H556  1  0.63442673  0.57966470  0.16712691  1
  H  H557  1  0.76736774  0.63267616  0.36985473  1
  N  N558  1  0.55038907  0.57195418  0.40179271  1
  C  C559  1  0.63549168  0.74485198  0.28717627  1
  C  C560  1  0.88400252  0.54947946  0.06277080  1
  O  O561  1  0.93730850  0.70246883  0.01831512  1
  C  C562  1  0.55451801  0.71598783  0.40654859  1
  H  H563  1  0.95105076  0.59034065  0.47472945  1
  H  H564  1  0.99653636  0.72935057  0.19526060  1
  C  C565  1  0.52482385  0.74178084  0.49321392  1
  C  C566  1  0.98242175  0.55852362  0.00975449  1
  N  N567  1  0.54641709  0.69454400  0.75541717  1
  C  C568  1  0.69023069  0.72755298  0.64980207  1
  C  C569  1  0.66466630  0.57268999  0.89452214  1
  C  C570  1  0.89906520  0.63792849  0.62180873  1
  H  H571  1  0.66307212  0.62804304  0.73909945  1
  C  C572  1  0.88306012  0.51504202  0.96719935  1
  H  H573  1  0.59078597  0.56149194  0.80058106  1
  C  C574  1  0.51194043  0.70727304  0.84928711  1
  O  O575  1  0.79802358  0.73187100  0.86892003  1
  C  C576  1  0.80755881  0.54216639  0.63742213  1
  C  C577  1  0.93686320  0.64999046  0.80531732  1
  N  N578  1  0.69642940  0.53041302  0.91412747  1
  C  C579  1  0.57584979  0.56329627  0.61130193  1
  H  H580  1  0.89438124  0.62317362  0.53518766  1
  O  O581  1  0.52363440  0.56727799  0.95791882  1
  C  C582  1  0.68348586  0.72922897  0.87411554  1
  C  C583  1  0.60497712  0.70901877  0.75754090  1
  C  C584  1  0.73874776  0.60492463  0.54209450  1
  H  H585  1  0.93508416  0.61768509  0.87258633  1
  H  H586  1  0.53722973  0.64784388  0.59025956  1
  C  C587  1  0.86112456  0.66414181  0.69470532  1
  H  H588  1  0.81937187  0.68012843  0.66997691  1
  C  C589  1  0.55760548  0.55908934  0.73004597  1
  Cu  Cu590  1  0.87006281  0.72694765  0.94046545  1
  H  H591  1  0.60217147  0.71104147  0.95246172  1
  N  N592  1  0.88101028  0.67026716  0.80631620  1
  N  N593  1  0.94503464  0.62747993  0.68719693  1
  C  C594  1  0.98279352  0.70152872  0.96903110  1
  C  C595  1  0.75828840  0.57233276  0.63932140  1
  H  H596  1  0.62598411  0.57769186  0.95361636  1
  C  C597  1  0.52107734  0.66465627  0.66937582  1
  N  N598  1  0.72223630  0.56643809  0.74139543  1
  C  C599  1  0.73068028  0.52519079  0.82122403  1
  C  C600  1  0.63583572  0.71166195  0.64955006  1
  C  C601  1  0.67886317  0.59381749  0.78352486  1
  H  H602  1  0.71324505  0.73161143  0.56711837  1
  H  H603  1  0.70501547  0.73405045  0.95959997  1
  H  H604  1  0.62019637  0.56571246  0.58890576  1
  Cu  Cu605  1  0.79993096  0.65801437  0.87887152  1
  H  H606  1  0.70040978  0.62780689  0.54366123  1
  O  O607  1  0.99004522  0.68121154  0.85957790  1
  C  C608  1  0.62641775  0.71648604  0.87326901  1
  C  C609  1  0.97738816  0.53027559  0.90192579  1
  H  H610  1  0.51968541  0.72912719  0.93656258  1
  H  H611  1  0.61467216  0.70400128  0.56473884  1
  C  C612  1  0.71066821  0.73725765  0.76506905  1
  C  C613  1  0.99435110  0.60821777  0.63972043  1
  H  H614  1  0.81928874  0.52007092  0.71675692  1
  C  C615  1  0.92705587  0.50440766  0.88490127  1
  C  C616  1  0.99109943  0.59187901  0.51886667  1
  C  C617  1  0.53567215  0.56017189  0.52074019  1
  H  H618  1  0.88219378  0.52585172  0.53321713  1
  C  C619  1  0.84165309  0.54524825  0.53601622  1
  C  C620  1  0.91958966  0.75865157  0.41755338  1
  C  C621  1  0.58769658  0.79638349  0.44481822  1
  Cu  Cu622  1  0.90036459  0.95239425  0.27994894  1
  H  H623  1  0.73765064  0.89468571  0.31246056  1
  O  O624  1  0.81872735  0.83052829  0.05433365  1
  N  N625  1  0.57851957  0.92653363  0.09840795  1
  H  H626  1  0.64151239  0.93938119  0.28408717  1
  O  O627  1  0.89588216  0.80135901  0.40113907  1
  C  C628  1  0.66255349  0.91605338  0.21053065  1
  H  H629  1  0.50938849  0.90971640  0.43723851  1
  Cu  Cu630  1  0.88904262  0.84636477  0.26106390  1
  H  H631  1  0.98222102  0.84099748  0.43305579  1
  C  C632  1  0.53490455  0.89956208  0.05276208  1
  O  O633  1  0.95673249  0.84542586  0.19489670  1
  C  C634  1  0.73431884  0.86607522  0.12542492  1
  H  H635  1  0.69085906  0.80348315  0.36903746  1
  C  C636  1  0.63641641  0.91215195  0.09512802  1
  H  H637  1  0.54604858  0.77957172  0.20905039  1
  O  O638  1  0.81740272  0.84886731  0.24737376  1
  H  H639  1  0.60963601  0.83451637  0.43693304  1
  O  O640  1  0.95428610  0.92925421  0.16858907  1
  O  O641  1  0.84053532  0.98544636  0.37200948  1
  C  C642  1  0.79414111  0.84941566  0.13536649  1
  C  C643  1  0.68688766  0.77269106  0.30218080  1
  C  C644  1  0.71405916  0.89352386  0.22492970  1
  N  N645  1  0.50220424  0.97174507  0.14908043  1
  C  C646  1  0.98182467  0.88802655  0.18732748  1
  H  H647  1  0.52405907  0.85980672  0.31037161  1
  C  C648  1  0.55765163  0.96787133  0.16383011  1
  O  O649  1  0.95384619  0.96437067  0.40548834  1
  C  C650  1  0.73383166  0.75588973  0.24174030  1
  N  N651  1  0.59299877  0.75357627  0.37516273  1
  H  H652  1  0.77054219  0.77919870  0.25374010  1
  C  C653  1  0.70947473  0.86095575  0.01228093  1
  H  H654  1  0.58710271  0.99535560  0.20584369  1
  C  C655  1  0.96850639  0.93481717  0.48701247  1
  C  C656  1  0.50260656  0.78853096  0.22357449  1
  C  C657  1  0.97797713  0.75756734  0.44384309  1
  H  H658  1  0.68452414  0.97724126  0.00944337  1
  H  H659  1  0.63588760  0.96409561  0.56786910  1
  C  C660  1  0.57889023  0.88363718  0.69931610  1
  N  N661  1  0.70735632  0.91524587  0.55504867  1
  H  H662  1  0.54077216  0.86524039  0.98886974  1
  H  H663  1  0.75542203  0.84269316  0.56753316  1
  N  N664  1  0.92888607  0.96129840  0.78543858  1
  C  C665  1  0.55871512  0.83695888  0.74688995  1
  C  C666  1  0.92642324  0.78572775  0.75097163  1
  H  H667  1  0.89089194  0.97199362  0.95698865  1
  N  N668  1  0.63101686  0.88685264  0.64065333  1
  H  H669  1  0.72840883  0.84033722  0.93612495  1
  C  C670  1  0.55129654  0.93167497  0.72178301  1
  N  N671  1  0.54374027  0.78936572  0.51870129  1
  H  H672  1  0.65966050  0.81003727  0.67850768  1
  H  H673  1  0.58292427  0.80222606  0.73290938  1
  H  H674  1  0.57303212  0.96662474  0.68799549  1
  O  O675  1  0.93475234  0.90815733  0.55041524  1
  N  N676  1  0.91246278  0.82082007  0.83762902  1
  C  C677  1  0.71657132  0.86576028  0.58175559  1
  C  C678  1  0.65642529  0.92775853  0.58553645  1
  C  C679  1  0.66825594  0.84705202  0.63565986  1
  H  H680  1  0.89527809  0.76980758  0.68715010  1
  C  C681  1  0.95856088  0.83328327  0.89850906  1
  O  O682  1  0.83851963  0.99055599  0.57231671  1
  Cu  Cu683  1  0.87936200  0.93631454  0.63565549  1
  H  H684  1  0.63869393  0.88667665  0.91265858  1
  H  H685  1  0.69959777  0.97708334  0.80162280  1
  C  C686  1  0.98300149  0.77745815  0.75645436  1
  C  C687  1  0.97922381  0.97720849  0.74026865  1
  C  C688  1  0.92654898  0.97587430  0.89978653  1
  C  C689  1  0.50606838  0.83662212  0.80317550  1
  H  H690  1  0.95406116  0.85819106  0.97649042  1
  O  O691  1  0.79713665  0.77085687  0.69106504  1
  H  H692  1  0.98748593  0.97326341  0.64879822  1
  H  H693  1  0.73438614  0.99820542  0.62591711  1
  C  C694  1  0.77206422  0.75104247  0.76988526  1
  C  C695  1  0.65929330  0.88618247  0.99878202  1
