# generated using pymatgen
data_CuH10(C7N3)2
_symmetry_space_group_name_H-M   'P 1'
_cell_length_a   13.45784101
_cell_length_b   7.04869874
_cell_length_c   25.15083327
_cell_angle_alpha   90.00000000
_cell_angle_beta   90.00000000
_cell_angle_gamma   90.00000000
_symmetry_Int_Tables_number   1
_chemical_formula_structural   CuH10(C7N3)2
_chemical_formula_sum   'Cu8 H80 C112 N48'
_cell_volume   2385.81475705
_cell_formula_units_Z   8
loop_
 _symmetry_equiv_pos_site_id
 _symmetry_equiv_pos_as_xyz
  1  'x, y, z'
loop_
 _atom_site_type_symbol
 _atom_site_label
 _atom_site_symmetry_multiplicity
 _atom_site_fract_x
 _atom_site_fract_y
 _atom_site_fract_z
 _atom_site_occupancy
  C  C0  1  0.18155960  0.42358424  0.22811140  1
  N  N1  1  0.32759698  0.36227160  0.17432097  1
  N  N2  1  0.14287411  0.24436177  0.22727373  1
  H  H3  1  0.37933838  0.22487427  0.06406339  1
  C  C4  1  0.39966679  0.34723680  0.03770615  1
  N  N5  1  0.06669648  0.37989661  0.10711254  1
  C  C6  1  0.19431300  0.13288424  0.19046465  1
  H  H7  1  0.12879313  0.14558700  0.08406089  1
  C  C8  1  0.28359904  0.19400523  0.16328408  1
  C  C9  1  0.15956412  0.41575230  0.02893170  1
  Cu  Cu10  1  0.46233508  0.43846060  0.14855189  1
  C  C11  1  0.12491590  0.30196624  0.07111113  1
  C  C12  1  0.27145064  0.47447341  0.20449490  1
  N  N13  1  0.43452543  0.46929334  0.07170657  1
  N  N14  1  0.32028947  0.07555002  0.12385334  1
  H  H15  1  0.28374122  0.40124651  0.33641258  1
  H  H16  1  0.46939517  0.36438851  0.36750609  1
  C  C17  1  0.35663316  0.11159184  0.45214287  1
  N  N18  1  0.43539317  0.17997810  0.42595625  1
  C  C19  1  0.24881197  0.12489979  0.43258882  1
  C  C20  1  0.40449383  0.29572251  0.38701885  1
  N  N21  1  0.22125208  0.23247157  0.39239812  1
  C  C22  1  0.30150758  0.31575500  0.37275376  1
  Cu  Cu23  1  0.08862968  0.28693454  0.36189416  1
  Cu  Cu24  1  0.00724622  0.36637990  0.44713847  1
  Cu  Cu25  1  0.02731194  0.19517658  0.26976358  1
  H  H26  1  0.39688876  0.39537562  0.48013023  1
  N  N27  1  0.17673334  0.02100277  0.45939957  1
  H  H28  1  0.18001142  0.04530952  0.33739879  1
  Cu  Cu29  1  0.03901130  0.02165435  0.43343736  1
  N  N30  1  0.11265584  0.37509793  0.74029588  1
  H  H31  1  0.15275476  0.26007508  0.62592881  1
  C  C32  1  0.08787913  0.33025983  0.54821187  1
  N  N33  1  0.33731328  0.17084233  0.67434604  1
  H  H34  1  0.32497505  0.35689201  0.59181070  1
  C  C35  1  0.29576497  0.00284163  0.66817710  1
  N  N36  1  0.13370043  0.07831354  0.70418459  1
  C  C37  1  0.16908409  0.25038674  0.71328597  1
  N  N38  1  0.03206519  0.44144059  0.51796568  1
  C  C39  1  0.11129356  0.36761693  0.60156743  1
  C  C40  1  0.27280652  0.29912863  0.69638460  1
  C  C41  1  0.37050599  0.47241954  0.57034684  1
  C  C42  1  0.30326711  0.48794554  0.70860435  1
  H  H43  1  0.10856660  0.19936214  0.52507781  1
  C  C44  1  0.40757853  0.47826829  0.51806301  1
  C  C45  1  0.38382555  0.35973745  0.98184950  1
  C  C46  1  0.41662915  0.23279665  0.83865434  1
  H  H47  1  0.34359086  0.25224354  0.95612429  1
  H  H48  1  0.38598340  0.37297684  0.85328994  1
  C  C49  1  0.12542534  0.22978838  0.88753731  1
  N  N50  1  0.11195144  0.41239862  0.87317168  1
  N  N51  1  0.20359361  0.13480326  0.86462235  1
  C  C52  1  0.05591346  0.14962893  0.92822333  1
  C  C53  1  0.37118394  0.11917176  0.79739358  1
  H  H54  1  0.02743590  0.05963982  0.76305198  1
  C  C55  1  0.03633082  0.48943442  0.89846114  1
  H  H56  1  0.21475662  0.38146852  0.99797711  1
  H  H57  1  0.29814984  0.15144800  0.77915079  1
  C  C58  1  0.45179512  0.63456346  0.04459914  1
  H  H59  1  0.35750448  0.94957226  0.21379805  1
  N  N60  1  0.47261525  0.78356532  0.22025702  1
  H  H61  1  0.18486609  0.67497361  0.14180297  1
  H  H62  1  0.30262881  0.85283446  0.07545061  1
  C  C63  1  0.16460295  0.93850920  0.18702832  1
  Cu  Cu64  1  0.48263306  0.78709922  0.14429808  1
  C  C65  1  0.28071780  0.90732489  0.11380787  1
  H  H66  1  0.10257414  0.88662192  0.21181655  1
  C  C67  1  0.20967201  0.82359806  0.14895524  1
  C  C68  1  0.04033460  0.56103920  0.10069528  1
  H  H69  1  0.31184132  0.60397218  0.21438187  1
  C  C70  1  0.07666438  0.68144806  0.05552376  1
  N  N71  1  0.48266139  0.79371890  0.07055051  1
  N  N72  1  0.13620035  0.59433948  0.02061569  1
  N  N73  1  0.05301656  0.86674648  0.04952464  1
  C  C74  1  0.40252388  0.88637740  0.24446837  1
  H  H75  1  0.44563963  0.81122520  0.37838239  1
  C  C76  1  0.44889666  0.78083396  0.33637627  1
  H  H77  1  0.13621594  0.51704049  0.25151903  1
  H  H78  1  0.22768036  0.71528709  0.38746223  1
  N  N79  1  0.05990986  0.94914059  0.30196983  1
  C  C80  1  0.16200974  0.74837601  0.36188635  1
  C  C81  1  0.39201871  0.89158753  0.30039191  1
  C  C82  1  0.14162793  0.91075491  0.33294609  1
  C  C83  1  0.37422584  0.99191577  0.49474710  1
  N  N84  1  0.11432308  0.58692931  0.35551416  1
  H  H85  1  0.33619387  0.96186702  0.32388012  1
  C  C86  1  0.03165457  0.59835200  0.32459633  1
  C  C87  1  0.20335727  0.89480331  0.49822804  1
  C  C88  1  0.01175945  0.77592589  0.29500334  1
  C  C89  1  0.19662603  0.96072683  0.68159872  1
  C  C90  1  0.46876030  0.72912824  0.58830422  1
  H  H91  1  0.31181569  0.78723998  0.55556010  1
  H  H92  1  0.37779672  0.54313715  0.69847269  1
  C  C93  1  0.01856600  0.65904831  0.59595617  1
  H  H94  1  0.13545236  0.83315979  0.51201473  1
  C  C95  1  0.29873635  0.87673670  0.51849662  1
  H  H96  1  0.44703486  0.97932086  0.51195787  1
  C  C97  1  0.24168048  0.61295558  0.73657407  1
  H  H98  1  0.34467975  0.90175413  0.64534159  1
  C  C99  1  0.07242123  0.52728585  0.62750294  1
  N  N100  1  0.40444910  0.59530099  0.60565352  1
  H  H101  1  0.15567513  0.81786856  0.67419329  1
  N  N102  1  0.49833067  0.86312684  0.62356784  1
  H  H103  1  0.09382055  0.55014329  0.67017717  1
  N  N104  1  0.47969857  0.58378174  0.50074726  1
  C  C105  1  0.46349984  0.83097509  0.96034836  1
  H  H106  1  0.18605492  0.71815984  0.93247831  1
  C  C107  1  0.43853910  0.65662190  0.98505455  1
  C  C108  1  0.16436806  0.86749143  0.92145502  1
  N  N109  1  0.40207113  0.94400078  0.78907844  1
  C  C110  1  0.14724859  0.54441864  0.75157129  1
  H  H111  1  0.03621659  0.88303936  0.97124787  1
  H  H112  1  0.44873940  0.83480247  0.91828717  1
  H  H113  1  0.08831688  0.62639751  0.77262151  1
  C  C114  1  0.49977280  0.97996185  0.99010967  1
  C  C115  1  0.48937513  0.88478890  0.80951095  1
  H  H116  1  0.03301432  0.64234405  0.88929334  1
  H  H117  1  0.27988336  0.88867100  0.85863594  1
  C  C118  1  0.07776041  0.95618040  0.94024468  1
  N  N119  1  0.40564822  0.51312367  0.95423325  1
  C  C120  1  0.22017240  0.95887966  0.88072372  1
  H  H121  1  0.26870814  0.74829302  0.75139488  1
  H  H122  1  0.85665899  0.37603706  0.09178545  1
  Cu  Cu123  1  0.61876560  0.29524099  0.10628835  1
  C  C124  1  0.91550314  0.27083085  0.16999240  1
  C  C125  1  0.81296763  0.13721290  0.22804276  1
  N  N126  1  0.91005773  0.19639037  0.21857884  1
  N  N127  1  0.63255096  0.12979220  0.19615314  1
  C  C128  1  0.73317583  0.16166170  0.18895421  1
  N  N129  1  0.67379814  0.38181194  0.04187079  1
  C  C130  1  0.84316121  0.29939590  0.13085501  1
  N  N131  1  0.75157246  0.24971607  0.13972855  1
  H  H132  1  0.98019500  0.09038829  0.07190006  1
  H  H133  1  0.99782484  0.31247536  0.16748436  1
  H  H134  1  0.52314622  0.04917117  0.07283731  1
  H  H135  1  0.83955861  0.01829765  0.00462972  1
  H  H136  1  0.70780566  0.39150307  0.23624754  1
  H  H137  1  0.65190285  0.11803830  0.01973061  1
  C  C138  1  0.61646299  0.06730080  0.24539644  1
  H  H139  1  0.54106005  0.02062278  0.24761507  1
  C  C140  1  0.67305531  0.26152965  0.00479518  1
  C  C141  1  0.68433239  0.02765116  0.28543644  1
  C  C142  1  0.72486049  0.09354999  0.42010912  1
  C  C143  1  0.79178511  0.43623548  0.44996775  1
  C  C144  1  0.65444941  0.24040895  0.43329920  1
  H  H145  1  0.67621145  0.35347745  0.34383844  1
  N  N146  1  0.86126867  0.31592792  0.44101546  1
  C  C147  1  0.83400250  0.13164868  0.42299864  1
  C  C148  1  0.78615575  0.05942597  0.27867946  1
  C  C149  1  0.88092094  0.46194145  0.29809558  1
  H  H150  1  0.83629644  0.33573053  0.30275531  1
  H  H151  1  0.57434753  0.20525069  0.43244879  1
  C  C152  1  0.64655787  0.46631399  0.25969101  1
  N  N153  1  0.96840115  0.44874621  0.32283234  1
  C  C154  1  0.68759657  0.41492275  0.44949951  1
  C  C155  1  0.63239658  0.44221328  0.31564749  1
  H  H156  1  0.83738386  0.01740438  0.30941705  1
  N  N157  1  0.90414897  0.00127014  0.41546328  1
  C  C158  1  0.75988103  0.20618977  0.64650368  1
  C  C159  1  0.64925606  0.10682999  0.73570722  1
  H  H160  1  0.66750676  0.09230652  0.54767024  1
  N  N161  1  0.80733041  0.25915541  0.60254248  1
  C  C162  1  0.68561423  0.33250235  0.67393988  1
  N  N163  1  0.63736887  0.28626613  0.71995276  1
  H  H164  1  0.83739328  0.46000908  0.55196412  1
  C  C165  1  0.78789854  0.43063655  0.58403966  1
  H  H166  1  0.84425572  0.22010883  0.72937601  1
  N  N167  1  0.77580821  0.03511330  0.66878479  1
  H  H168  1  0.88803234  0.02915522  0.61257298  1
  H  H169  1  0.93321194  0.49353198  0.69054900  1
  H  H170  1  0.58113964  0.09069101  0.64110050  1
  H  H171  1  0.78624223  0.23456717  0.82839471  1
  C  C172  1  0.54905224  0.01197348  0.84470365  1
  C  C173  1  0.50568257  0.18203514  0.86259632  1
  N  N174  1  0.97691002  0.22877381  0.94857099  1
  C  C175  1  0.70371683  0.29348103  0.95194181  1
  H  H176  1  0.69361628  0.18048111  0.92324251  1
  H  H177  1  0.61013599  0.07457113  0.77193289  1
  H  H178  1  0.77725179  0.49867785  0.90025022  1
  C  C179  1  0.96847833  0.40865999  0.93525794  1
  H  H180  1  0.94271299  0.06811927  0.86476877  1
  C  C181  1  0.82410967  0.35608169  0.80520490  1
  H  H182  1  0.91114768  0.48475022  0.95765205  1
  H  H183  1  0.50506137  0.12921704  0.97368199  1
  H  H184  1  0.53665419  0.26946862  0.89280650  1
  C  C185  1  0.74424484  0.47022876  0.94040096  1
  C  C186  1  0.85704238  0.35253835  0.75206251  1
  C  C187  1  0.98503830  0.66500336  0.14040119  1
  C  C188  1  0.76397527  0.82869373  0.06511337  1
  H  H189  1  0.95969774  0.59561571  0.17607652  1
  N  N190  1  0.60631937  0.57895030  0.22359029  1
  C  C191  1  0.96546958  0.85473089  0.13418459  1
  N  N192  1  0.71069828  0.68218680  0.07909842  1
  Cu  Cu193  1  0.65205220  0.60916089  0.14697377  1
  C  C194  1  0.80088349  0.88125513  0.01300353  1
  H  H195  1  0.76557107  0.92580946  0.10063257  1
  H  H196  1  0.91755405  0.92469681  0.16187108  1
  C  C197  1  0.99529820  0.94270250  0.08574686  1
  C  C198  1  0.71505278  0.55771341  0.03724938  1
  H  H199  1  0.90821447  0.89556162  0.23481601  1
  C  C200  1  0.50932454  0.94288524  0.04468944  1
  C  C201  1  0.53297717  0.67326015  0.24912329  1
  H  H202  1  0.79010475  0.62049070  0.24099167  1
  C  C203  1  0.75763807  0.80839584  0.39405377  1
  H  H204  1  0.71930704  0.66777415  0.38533041  1
  H  H205  1  0.91875643  0.72535120  0.39644882  1
  H  H206  1  0.66195036  0.97470520  0.32272190  1
  C  C207  1  0.51894535  0.65986856  0.31028984  1
  C  C208  1  0.86178764  0.84136312  0.40098556  1
  N  N209  1  0.68623323  0.93006531  0.40450780  1
  H  H210  1  0.82748377  0.56169077  0.46130523  1
  N  N211  1  0.57318818  0.55285303  0.34160693  1
  C  C212  1  0.92693939  0.77372607  0.26021435  1
  C  C213  1  0.86210307  0.62036618  0.26364576  1
  H  H214  1  0.62496384  0.85964665  0.48232564  1
  H  H215  1  0.63714929  0.52871126  0.46635414  1
  H  H216  1  0.74492472  0.84880270  0.71847538  1
  C  C217  1  0.99747767  0.60214496  0.53872348  1
  C  C218  1  0.90821171  0.50414177  0.73194806  1
  C  C219  1  0.90877020  0.87575061  0.53455069  1
  C  C220  1  0.58559220  0.85848214  0.51994150  1
  C  C221  1  0.51401755  0.71337046  0.53399112  1
  N  N222  1  0.94770141  0.72835481  0.50844451  1
  C  C223  1  0.56535921  0.98923508  0.60925034  1
  C  C224  1  0.71528275  0.55970364  0.60323261  1
  H  H225  1  0.70553566  0.70025451  0.58376360  1
  C  C226  1  0.92195543  0.91123566  0.58976807  1
  C  C227  1  0.61458248  0.98555555  0.55883443  1
  H  H228  1  0.61836157  0.61285621  0.66843204  1
  C  C229  1  0.72263126  0.99466994  0.70962172  1
  N  N230  1  0.98014968  0.80832828  0.62045680  1
  C  C231  1  0.66908295  0.51298485  0.65044211  1
  H  H232  1  0.85745606  0.95696606  0.50762575  1
  N  N233  1  0.97398035  0.82323214  0.74868352  1
  C  C234  1  0.61590407  0.67938748  0.81505800  1
  C  C235  1  0.66864361  0.79310866  0.85226017  1
  H  H236  1  0.74033171  0.77145633  0.86705289  1
  N  N237  1  0.63868878  0.96301245  0.86411822  1
  C  C238  1  0.92140999  0.66986711  0.76622215  1
  H  H239  1  0.63388903  0.53727540  0.80111722  1
  C  C240  1  0.75139144  0.60700839  0.98193020  1
  N  N241  1  0.88167065  0.82049839  0.85336780  1
  C  C242  1  0.98782933  0.94945678  0.78525225  1
  C  C243  1  0.87455863  0.67014471  0.82061496  1
  N  N244  1  0.83089153  0.50736594  0.83845628  1
  N  N245  1  0.78515402  0.78426983  0.96975591  1
  N  N246  1  0.52388569  0.70948323  0.79621493  1
  C  C247  1  0.94328985  0.95146726  0.83712023  1
