# generated using pymatgen
data_CuH6C6(NO)2
_symmetry_space_group_name_H-M   'P 1'
_cell_length_a   24.25105232
_cell_length_b   15.13203780
_cell_length_c   15.71396934
_cell_angle_alpha   90.00000000
_cell_angle_beta   90.00000000
_cell_angle_gamma   90.00000000
_symmetry_Int_Tables_number   1
_chemical_formula_structural   CuH6C6(NO)2
_chemical_formula_sum   'Cu32 H192 C192 N64 O64'
_cell_volume   5766.52139338
_cell_formula_units_Z   32
loop_
 _symmetry_equiv_pos_site_id
 _symmetry_equiv_pos_as_xyz
  1  'x, y, z'
loop_
 _atom_site_type_symbol
 _atom_site_label
 _atom_site_symmetry_multiplicity
 _atom_site_fract_x
 _atom_site_fract_y
 _atom_site_fract_z
 _atom_site_occupancy
  C  C0  1  0.17697668  0.01719494  0.18863064  1
  C  C1  1  0.23810630  0.16453861  0.31926802  1
  C  C2  1  0.03430414  0.39479672  0.19846908  1
  C  C3  1  0.02516285  0.40016360  0.40048020  1
  H  H4  1  0.00500497  0.44101139  0.34739889  1
  C  C5  1  0.19731638  0.28162499  0.11542017  1
  N  N6  1  0.13922289  0.10487285  0.07334579  1
  Cu  Cu7  1  0.15294757  0.38929180  0.30973673  1
  N  N8  1  0.21532788  0.33110984  0.36003069  1
  Cu  Cu9  1  0.02614332  0.09932500  0.30182553  1
  H  H10  1  0.11457664  0.40102703  0.17805247  1
  C  C11  1  0.07515156  0.44964716  0.43493177  1
  N  N12  1  0.08214670  0.36340690  0.19229617  1
  C  C13  1  0.23813661  0.26110135  0.35907981  1
  H  H14  1  0.19786065  0.13083944  0.31625087  1
  Cu  Cu15  1  0.06839436  0.12057241  0.11847801  1
  N  N16  1  0.08655823  0.07717109  0.23178116  1
  Cu  Cu17  1  0.09885142  0.25293383  0.23891824  1
  C  C18  1  0.17956665  0.06136668  0.10595891  1
  H  H19  1  0.18013166  0.22162455  0.14939329  1
  H  H20  1  0.00623069  0.28707643  0.02201449  1
  N  N21  1  0.02461077  0.22177948  0.27273463  1
  C  C22  1  0.13289883  0.03328106  0.24905456  1
  N  N23  1  0.12369381  0.44898629  0.40373153  1
  H  H24  1  0.23339796  0.30258339  0.15478895  1
  N  N25  1  0.24368034  0.47838199  0.19266023  1
  H  H26  1  0.11963977  0.02504385  0.38798586  1
  H  H27  1  0.16443748  0.33680495  0.11356296  1
  C  C28  1  0.23153712  0.03967126  0.05875085  1
  H  H29  1  0.03735113  0.33630961  0.36852497  1
  C  C30  1  0.21955739  0.25180393  0.02559359  1
  C  C31  1  0.01716811  0.49439155  0.16873389  1
  C  C32  1  0.20936361  0.49634800  0.06801842  1
  H  H33  1  0.01871513  0.49877500  0.09805726  1
  H  H34  1  0.14484737  0.12703688  0.01229680  1
  C  C35  1  0.10450760  0.13960166  0.73591009  1
  Cu  Cu36  1  0.12220497  0.31218056  0.93031259  1
  N  N37  1  0.18870202  0.26318747  0.96005504  1
  C  C38  1  0.17862754  0.30903977  0.55892905  1
  C  C39  1  0.05966406  0.44005097  0.78172946  1
  C  C40  1  0.08826215  0.31143700  0.61500226  1
  C  C41  1  0.11484938  0.41192586  0.74583324  1
  C  C42  1  0.18077949  0.36078507  0.64252585  1
  C  C43  1  0.12569795  0.36300770  0.67036741  1
  H  H44  1  0.22313905  0.00526612  0.99466985  1
  H  H45  1  0.17670778  0.48254748  0.81991886  1
  N  N46  1  0.20989514  0.40254374  0.70236102  1
  C  C47  1  0.12138101  0.10314430  0.64981868  1
  N  N48  1  0.08957856  0.22395859  0.86844027  1
  H  H49  1  0.21718948  0.27257314  0.54239827  1
  C  C50  1  0.04818518  0.17131077  0.85729793  1
  H  H51  1  0.12272106  0.16068371  0.60369074  1
  H  H52  1  0.09078090  0.05113387  0.62814069  1
  C  C53  1  0.05336579  0.12071047  0.77943478  1
  O  O54  1  0.04108156  0.29311273  0.62192601  1
  N  N55  1  0.12943902  0.19538703  0.78272944  1
  Cu  Cu56  1  0.19004259  0.26235362  0.77791089  1
  O  O57  1  0.12377852  0.27422659  0.54355937  1
  C  C58  1  0.19763482  0.00435346  0.79558157  1
  N  N59  1  0.22495828  0.23007425  0.87524981  1
  H  H60  1  0.05551020  0.44612227  0.85207179  1
  N  N61  1  0.16178861  0.44167133  0.77401136  1
  H  H62  1  0.24674663  0.43534041  0.70001391  1
  H  H63  1  0.16216597  0.06924179  0.65273521  1
  C  C64  1  0.00608230  0.06903342  0.75925968  1
  H  H65  1  0.02734483  0.39011438  0.76008544  1
  H  H66  1  0.18558286  0.07571973  0.80095215  1
  H  H67  1  0.17688897  0.35553414  0.50091712  1
  C  C68  1  0.20948436  0.48441681  0.97529133  1
  H  H69  1  0.07440699  0.00627604  0.92904555  1
  O  O70  1  0.16736183  0.48953544  0.93553411  1
  C  C71  1  0.08030494  0.69073793  0.27408688  1
  H  H72  1  0.12893436  0.92462531  0.33364863  1
  O  O73  1  0.06803032  0.63501217  0.32315134  1
  N  N74  1  0.17948813  0.52472267  0.19617076  1
  H  H75  1  0.20045210  0.79631966  0.46967869  1
  N  N76  1  0.16442972  0.50577944  0.46999345  1
  N  N77  1  0.07570115  0.86252616  0.11993730  1
  H  H78  1  0.21193071  0.85929999  0.04918787  1
  H  H79  1  0.04676012  0.54283066  0.19893267  1
  Cu  Cu80  1  0.16358908  0.55771935  0.30936232  1
  H  H81  1  0.08858175  0.53693174  0.04437165  1
  C  C82  1  0.08626711  0.80300242  0.17430365  1
  O  O83  1  0.04125869  0.93478943  0.37595662  1
  H  H84  1  0.17586802  0.79641110  0.15200780  1
  C  C85  1  0.22074971  0.95396048  0.20153964  1
  O  O86  1  0.23255989  0.90309256  0.25413589  1
  C  C87  1  0.11741357  0.58649926  0.07106136  1
  H  H88  1  0.13078918  0.62497652  0.01597217  1
  C  C89  1  0.19838478  0.78134821  0.39873846  1
  C  C90  1  0.13882784  0.77125179  0.18476871  1
  H  H91  1  0.15657760  0.76552195  0.38438547  1
  O  O92  1  0.14206978  0.70719534  0.23753450  1
  N  N93  1  0.01005851  0.90497612  0.12499573  1
  C  C94  1  0.04679787  0.75743837  0.23098008  1
  C  C95  1  0.16634350  0.53571321  0.11553825  1
  Cu  Cu96  1  0.11957997  0.93073565  0.05727929  1
  H  H97  1  0.09402590  0.62882274  0.11897935  1
  H  H98  1  0.03747401  0.70126205  0.49200290  1
  N  N99  1  0.22560801  0.62817960  0.34206494  1
  C  C100  1  0.23816482  0.70491764  0.37130808  1
  Cu  Cu101  1  0.23764139  0.51603100  0.44381891  1
  H  H102  1  0.21258614  0.84371087  0.36604892  1
  H  H103  1  0.22065809  0.70013516  0.12321422  1
  H  H104  1  0.18863928  0.98984846  0.35691036  1
  C  C105  1  0.14406491  0.99119631  0.33859160  1
  N  N106  1  0.17645638  0.85881435  0.01795555  1
  H  H107  1  0.08020884  0.79359294  0.47463606  1
  O  O108  1  0.12018811  0.74313650  0.75298335  1
  H  H109  1  0.00643240  0.57006820  0.67550724  1
  C  C110  1  0.04909703  0.76317001  0.51861170  1
  C  C111  1  0.13125425  0.82408741  0.88217917  1
  H  H112  1  0.22542260  0.70182105  0.96011603  1
  C  C113  1  0.03935379  0.87504254  0.81945027  1
  C  C114  1  0.03179575  0.52148006  0.57058378  1
  H  H115  1  0.04383418  0.82823265  0.76463340  1
  H  H116  1  0.17681497  0.54442386  0.65336238  1
  C  C117  1  0.15888152  0.58589441  0.60491254  1
  C  C118  1  0.14581023  0.76653644  0.81285317  1
  O  O119  1  0.22932165  0.98763908  0.87829466  1
  H  H120  1  0.18932656  0.64145206  0.58527803  1
  N  N121  1  0.07357384  0.94074823  0.95185780  1
  C  C122  1  0.17261153  0.82176272  0.94536671  1
  O  O123  1  0.04087846  0.58105149  0.64856062  1
  H  H124  1  0.12187668  0.61968208  0.63645392  1
  C  C125  1  0.07745636  0.50443991  0.51384875  1
  C  C126  1  0.21913810  0.75756966  0.90821500  1
  C  C127  1  0.13340410  0.53071777  0.53188668  1
  O  O128  1  0.20469763  0.72913365  0.83045604  1
  H  H129  1  0.15936728  0.96531929  0.79353965  1
  H  H130  1  0.02316576  0.68114352  0.88701844  1
  H  H131  1  0.03413754  0.93630462  0.97553450  1
  H  H132  1  0.00419282  0.91786183  0.82040967  1
  C  C133  1  0.08011351  0.87608757  0.88062710  1
  H  H134  1  0.04761532  0.50794534  0.75380553  1
  N  N135  1  0.24825061  0.97651211  0.63961811  1
  C  C136  1  0.23660942  0.98510898  0.72249264  1
  H  H137  1  0.23270762  0.99747015  0.58316253  1
  H  H138  1  0.07121188  0.75143262  0.58012197  1
  N  N139  1  0.43692426  0.32080080  0.09638099  1
  N  N140  1  0.42836065  0.27201897  0.16771148  1
  H  H141  1  0.45537136  0.23524674  0.33827139  1
  C  C142  1  0.43578062  0.32224015  0.23655505  1
  C  C143  1  0.31414972  0.20515580  0.05887258  1
  H  H144  1  0.39090779  0.20949599  0.06763101  1
  C  C145  1  0.45234714  0.40400271  0.11360679  1
  H  H146  1  0.34208464  0.39231722  0.11803212  1
  C  C147  1  0.41977087  0.28038417  0.32271231  1
  H  H148  1  0.37921702  0.24380904  0.31493185  1
  H  H149  1  0.32518247  0.46471096  0.02753486  1
  O  O150  1  0.37038220  0.17955299  0.02443563  1
  C  C151  1  0.45199247  0.40506633  0.20500067  1
  H  H152  1  0.41398275  0.32935427  0.37312663  1
  C  C153  1  0.46932189  0.47580429  0.05168312  1
  C  C154  1  0.30732945  0.41909776  0.07752423  1
  C  C155  1  0.28736493  0.26496219  0.41006069  1
  C  C156  1  0.29718082  0.34800845  0.44951386  1
  O  O157  1  0.31046730  0.22838939  0.12988894  1
  O  O158  1  0.47883666  0.46286048  0.33975366  1
  H  H159  1  0.29020416  0.35857157  0.04232645  1
  O  O160  1  0.27962571  0.11870051  0.35610197  1
  C  C161  1  0.31692986  0.17886094  0.41225088  1
  H  H162  1  0.25686403  0.09723253  0.04930001  1
  Cu  Cu163  1  0.27689593  0.45977448  0.29477225  1
  C  C164  1  0.47416533  0.47309467  0.26425483  1
  N  N165  1  0.25592154  0.39724258  0.42877960  1
  H  H166  1  0.25200917  0.16470021  0.25000669  1
  C  C167  1  0.25698136  0.46746083  0.11508211  1
  H  H168  1  0.36422858  0.44016599  0.49934959  1
  O  O169  1  0.35538980  0.15654796  0.45188555  1
  C  C170  1  0.44563660  0.36753672  0.71740547  1
  O  O171  1  0.31632446  0.48147405  0.78980248  1
  C  C172  1  0.26761006  0.19173911  0.90682175  1
  H  H173  1  0.34636789  0.41266857  0.94928962  1
  H  H174  1  0.29951971  0.35898033  0.87786550  1
  C  C175  1  0.49214190  0.02513281  0.62295054  1
  H  H176  1  0.32120826  0.37968303  0.57563927  1
  H  H177  1  0.34055140  0.29182731  0.95179293  1
  C  C178  1  0.31512363  0.15178899  0.85480602  1
  C  C179  1  0.42849850  0.17515993  0.62695977  1
  H  H180  1  0.44376010  0.23946921  0.59990519  1
  O  O181  1  0.25654597  0.47078280  0.93541828  1
  H  H182  1  0.34229472  0.19904173  0.81828184  1
  C  C183  1  0.34071439  0.34961144  0.90960234  1
  C  C184  1  0.38729103  0.34411888  0.84085048  1
  H  H185  1  0.29824586  0.10199892  0.81118758  1
  H  H186  1  0.44149491  0.23534258  0.88516906  1
  H  H187  1  0.49244162  0.44959880  0.99516839  1
  C  C188  1  0.47004918  0.40840521  0.63689124  1
  C  C189  1  0.36198956  0.46533098  0.73950261  1
  N  N190  1  0.42709052  0.28789944  0.84873278  1
  O  O191  1  0.41192129  0.00555609  0.54182431  1
  C  C192  1  0.47499349  0.11191706  0.64778575  1
  H  H193  1  0.40186028  0.13343149  0.58312117  1
  H  H194  1  0.34660835  0.11910863  0.90020119  1
  N  N195  1  0.46723128  0.30476163  0.75931993  1
  H  H196  1  0.40332342  0.20075816  0.68222348  1
  C  C197  1  0.39623027  0.39057343  0.76396862  1
  C  C198  1  0.34193440  0.37670964  0.51332214  1
  H  H199  1  0.47078219  0.48526786  0.64186186  1
  C  C200  1  0.26887830  0.21234678  0.99701361  1
  H  H201  1  0.44383221  0.39071966  0.58057088  1
  O  O202  1  0.49189571  0.15347219  0.90777305  1
  H  H203  1  0.37403795  0.32540444  0.52057822  1
  O  O204  1  0.26353452  0.96608562  0.11548080  1
  O  O205  1  0.37777096  0.75723630  0.43320575  1
  C  C206  1  0.29723927  0.70650163  0.38084851  1
  H  H207  1  0.28846534  0.92852288  0.14699863  1
  C  C208  1  0.35009775  0.74758732  0.06721937  1
  N  N209  1  0.28802904  0.57387623  0.32835790  1
  H  H210  1  0.46213210  0.73639215  0.13168007  1
  C  C211  1  0.31049994  0.73583963  0.13129301  1
  C  C212  1  0.38669652  0.81883440  0.07725615  1
  H  H213  1  0.38575042  0.91663477  0.18238039  1
  N  N214  1  0.31639571  0.80193447  0.18357487  1
  O  O215  1  0.48626207  0.55122037  0.23061574  1
  H  H216  1  0.47956583  0.64570760  0.37387034  1
  H  H217  1  0.45539072  0.90803346  0.05443501  1
  H  H218  1  0.38905197  0.53942859  0.30285943  1
  Cu  Cu219  1  0.42493055  0.83033691  0.48650622  1
  N  N220  1  0.37266371  0.86417293  0.14501078  1
  C  C221  1  0.32549627  0.77102275  0.43379858  1
  H  H222  1  0.48001340  0.70985545  0.02804499  1
  C  C223  1  0.38585362  0.60226258  0.34019753  1
  C  C224  1  0.32543530  0.62798704  0.34911985  1
  O  O225  1  0.30415563  0.83232090  0.47480284  1
  H  H226  1  0.29736394  0.82933584  0.23675189  1
  C  C227  1  0.48019949  0.76409788  0.07449406  1
  C  C228  1  0.44272988  0.83972527  0.03620914  1
  H  H229  1  0.25308369  0.66149253  0.21728961  1
  H  H230  1  0.40969953  0.65883916  0.30776259  1
  H  H231  1  0.40778985  0.59661255  0.40267570  1
  H  H232  1  0.43172057  0.50971235  0.02663984  1
  H  H233  1  0.46879921  0.69941115  0.48883763  1
  C  C234  1  0.26070757  0.67535292  0.14758487  1
  H  H235  1  0.26993107  0.60776378  0.12240606  1
  H  H236  1  0.49472695  0.52683346  0.08503740  1
  O  O237  1  0.31591644  0.94239356  0.90660178  1
  O  O238  1  0.31349980  0.62724395  0.97492494  1
  C  C239  1  0.28646542  0.95409323  0.76041962  1
  C  C240  1  0.39627058  0.91876608  0.73383414  1
  C  C241  1  0.28211813  0.96036879  0.85438000  1
  C  C242  1  0.35372340  0.68133621  0.99355891  1
  Cu  Cu243  1  0.31114245  0.55303688  0.88201120  1
  H  H244  1  0.40054937  0.84740999  0.72561479  1
  H  H245  1  0.43948952  0.83846248  0.96286866  1
  O  O246  1  0.47490961  0.90329536  0.53400897  1
  H  H247  1  0.40159804  0.94379858  0.80196933  1
  C  C248  1  0.33534324  0.93887976  0.70758239  1
  N  N249  1  0.31662607  0.94557418  0.63072883  1
  C  C250  1  0.46048629  0.97955348  0.56022972  1
  O  O251  1  0.39441830  0.68424857  0.95241685  1
  H  H252  1  0.42695331  0.95178019  0.69159278  1
  H  H253  1  0.25902110  0.79441382  0.90943941  1
  O  O254  1  0.37037094  0.50132420  0.67463650  1
  Cu  Cu255  1  0.35107228  0.93744961  0.51075726  1
  C  C256  1  0.67073121  0.31577208  0.14421734  1
  H  H257  1  0.55327161  0.44430236  0.12301192  1
  C  C258  1  0.57016622  0.32993675  0.42679650  1
  C  C259  1  0.56183788  0.19652956  0.34874526  1
  H  H260  1  0.53147982  0.15443062  0.17165409  1
  Cu  Cu261  1  0.68325325  0.01891137  0.12293297  1
  N  N262  1  0.66103748  0.12491849  0.01382895  1
  H  H263  1  0.72543673  0.16300320  0.27585671  1
  O  O264  1  0.57275853  0.24118564  0.43251824  1
  Cu  Cu265  1  0.73568595  0.14696415  0.03851370  1
  N  N266  1  0.74025230  0.40089649  0.48167540  1
  C  C267  1  0.59543713  0.26017719  0.01180286  1
  C  C268  1  0.70134480  0.37821924  0.28773247  1
  H  H269  1  0.60386243  0.17500741  0.17352271  1
  N  N270  1  0.61477360  0.46082770  0.29079605  1
  H  H271  1  0.59534139  0.34173098  0.36482209  1
  C  C272  1  0.57220499  0.11897360  0.16914526  1
  H  H273  1  0.52474273  0.33374103  0.41275880  1
  C  C274  1  0.66279671  0.36474771  0.21852624  1
  C  C275  1  0.57543870  0.10182647  0.33689411  1
  C  C276  1  0.57525134  0.06202444  0.25116373  1
  O  O277  1  0.70817363  0.26841503  0.12977113  1
  C  C278  1  0.61075734  0.41348266  0.22447148  1
  Cu  Cu279  1  0.68665191  0.47928373  0.44691105  1
  C  C280  1  0.59215062  0.04094251  0.40104518  1
  C  C281  1  0.57427169  0.38731182  0.15256205  1
  N  N282  1  0.67854035  0.43494727  0.33668572  1
  H  H283  1  0.57709112  0.07891469  0.11165794  1
  H  H284  1  0.54241816  0.33507177  0.16225367  1
  O  O285  1  0.61451337  0.32221965  0.09074779  1
  O  O286  1  0.54878537  0.23682802  0.28584916  1
  C  C287  1  0.71090606  0.11000584  0.32102272  1
  N  N288  1  0.58186568  0.47729989  0.46465076  1
  C  C289  1  0.72903265  0.01727595  0.29461374  1
  H  H290  1  0.72505610  0.12288549  0.38956361  1
  H  H291  1  0.55117157  0.26861770  0.03226186  1
  H  H292  1  0.64217126  0.44896785  0.08321300  1
  H  H293  1  0.66458028  0.11649963  0.32529903  1
  C  C294  1  0.66290877  0.49855152  0.04551332  1
  C  C295  1  0.58198523  0.40109625  0.49715791  1
  C  C296  1  0.59412965  0.05436454  0.49860734  1
  C  C297  1  0.71571987  0.46163831  0.00991365  1
  N  N298  1  0.65499157  0.02011049  0.97919825  1
  N  N299  1  0.71611254  0.29414046  0.50245153  1
  C  C300  1  0.57854832  0.09800790  0.95814037  1
  H  H301  1  0.56764808  0.26944284  0.55983421  1
  H  H302  1  0.58969980  0.05447846  0.75312903  1
  C  C303  1  0.58993671  0.41370804  0.58670667  1
  H  H304  1  0.61501336  0.11784074  0.51171179  1
  H  H305  1  0.73309372  0.36356811  0.91286928  1
  H  H306  1  0.73967421  0.15481126  0.63798751  1
  H  H307  1  0.62794611  0.48545499  0.74476414  1
  Cu  Cu308  1  0.52956944  0.23690639  0.75391658  1
  H  H309  1  0.55312243  0.05603224  0.52534930  1
  O  O310  1  0.60919776  0.34895976  0.71967999  1
  C  C311  1  0.59301357  0.34024097  0.64845027  1
  O  O312  1  0.58225941  0.25083866  0.61417117  1
  N  N313  1  0.55765968  0.04859645  0.71322575  1
  C  C314  1  0.52393340  0.09579769  0.92117225  1
  N  N315  1  0.51182727  0.13455291  0.70352463  1
  H  H316  1  0.60700650  0.30519323  0.95929969  1
  H  H317  1  0.68011736  0.29090032  0.52782441  1
  H  H318  1  0.51193762  0.38478896  0.62643546  1
  C  C319  1  0.60635639  0.01729216  0.94788209  1
  C  C320  1  0.61486677  0.16643830  0.99830632  1
  N  N321  1  0.74212189  0.40598723  0.96091207  1
  H  H322  1  0.71257555  0.11951646  0.53327055  1
  C  C323  1  0.74748195  0.15535659  0.56717990  1
  Cu  Cu324  1  0.74027027  0.56812348  0.30551356  1
  C  C325  1  0.63704542  0.75792955  0.47007450  1
  N  N326  1  0.73013290  0.58882370  0.42341553  1
  H  H327  1  0.61342137  0.90130082  0.38563370  1
  N  N328  1  0.59340315  0.98366167  0.25964643  1
  N  N329  1  0.55147994  0.86026881  0.13502304  1
  O  O330  1  0.58965534  0.72901605  0.25676397  1
  C  C331  1  0.69401198  0.80063175  0.46048835  1
  N  N332  1  0.66597177  0.82261404  0.10341607  1
  C  C333  1  0.73759013  0.57891934  0.11193402  1
  C  C334  1  0.60343459  0.72967609  0.40300112  1
  H  H335  1  0.51689439  0.88476611  0.16149801  1
  C  C336  1  0.58889784  0.75905809  0.04033453  1
  Cu  Cu337  1  0.71746841  0.70592742  0.22605286  1
  H  H338  1  0.70273855  0.63463808  0.43097469  1
  C  C339  1  0.53950289  0.79890885  0.08108361  1
  Cu  Cu340  1  0.62120906  0.89434993  0.18147141  1
  N  N341  1  0.60318334  0.96359337  0.37031352  1
  H  H342  1  0.70070721  0.83575996  0.40168236  1
  C  C343  1  0.62457903  0.74060853  0.31781100  1
  H  H344  1  0.70758499  0.66560152  0.01702507  1
  Cu  Cu345  1  0.57145152  0.52621927  0.35715077  1
  Cu  Cu346  1  0.54174624  0.63479827  0.24073796  1
  O  O347  1  0.67270515  0.76281337  0.29568832  1
  N  N348  1  0.51664514  0.66697494  0.35973166  1
  C  C349  1  0.64564635  0.77696004  0.04995590  1
  N  N350  1  0.72055859  0.98649243  0.22039706  1
  O  O351  1  0.68425593  0.56566286  0.11851855  1
  C  C352  1  0.54669972  0.69892754  0.42055523  1
  Cu  Cu353  1  0.73983755  0.82779310  0.10482630  1
  H  H354  1  0.72823263  0.75114404  0.46081912  1
  C  C355  1  0.68440305  0.90927106  0.66749055  1
  H  H356  1  0.61869129  0.99851937  0.52707822  1
  H  H357  1  0.64495837  0.76987231  0.60512005  1
  H  H358  1  0.69702751  0.96976919  0.70396702  1
  O  O359  1  0.62269328  0.88084497  0.70695012  1
  N  N360  1  0.62340022  0.75246093  0.55022799  1
  H  H361  1  0.58585123  0.89378313  0.58391428  1
  C  C362  1  0.69187469  0.76066153  0.72464440  1
  O  O363  1  0.59936027  0.73016693  0.76496289  1
  N  N364  1  0.59533577  0.55147696  0.54517064  1
  H  H365  1  0.56537603  0.54981180  0.73300933  1
  H  H366  1  0.63429327  0.52052001  0.99492524  1
  C  C367  1  0.63266277  0.77512510  0.73382804  1
  H  H368  1  0.69112527  0.59777391  0.83487354  1
  C  C369  1  0.57044856  0.90116603  0.64808127  1
  O  O370  1  0.63633150  0.66201677  0.94920574  1
  C  C371  1  0.72960885  0.68954220  0.74164458  1
  H  H372  1  0.68686101  0.92133080  0.59648986  1
  H  H373  1  0.63022822  0.59709967  0.69690695  1
  H  H374  1  0.54308662  0.84251776  0.66230092  1
  O  O375  1  0.51493690  0.99706715  0.89107744  1
  H  H376  1  0.57983969  0.92898627  0.83870015  1
  C  C377  1  0.72370832  0.59776961  0.78315055  1
  C  C378  1  0.72223375  0.83322221  0.68164978  1
  H  H379  1  0.70312780  0.74837334  0.93492110  1
  C  C380  1  0.60750439  0.53528484  0.70430848  1
  H  H381  1  0.73935187  0.88168005  0.81308245  1
  H  H382  1  0.55570095  0.88951415  0.94476380  1
  H  H383  1  0.58750711  0.72346842  0.56884979  1
  C  C384  1  0.56299478  0.95327117  0.90400717  1
  H  H385  1  0.52579861  0.64987433  0.55013549  1
  C  C386  1  0.57677746  0.68966865  0.98119028  1
  H  H387  1  0.52208483  0.77004288  0.53801456  1
  C  C388  1  0.67678580  0.71151692  0.98351711  1
  O  O389  1  0.53573244  0.65344501  0.96045016  1
  H  H390  1  0.59785073  0.61708176  0.52849319  1
  C  C391  1  0.54104195  0.98774944  0.66102042  1
  Cu  Cu392  1  0.71854954  0.94457385  0.98612298  1
  H  H393  1  0.71824614  0.54270496  0.74086865  1
  C  C394  1  0.59911257  0.50389434  0.61369057  1
  C  C395  1  0.51513518  0.70409155  0.50681394  1
  H  H396  1  0.70394238  0.84989242  0.51136876  1
  H  H397  1  0.89431125  0.05346255  0.45293871  1
  H  H398  1  0.89234006  0.22179443  0.26116361  1
  C  C399  1  0.84915033  0.43042725  0.48179038  1
  C  C400  1  0.84418747  0.19080727  0.11389647  1
  C  C401  1  0.95330322  0.18780173  0.09358865  1
  C  C402  1  0.98035048  0.27189311  0.27297246  1
  H  H403  1  0.90797028  0.29785789  0.34864260  1
  O  O404  1  0.80814642  0.13960286  0.15295210  1
  H  H405  1  0.77099046  0.29027470  0.25513780  1
  C  C406  1  0.89833298  0.15902867  0.12572391  1
  C  C407  1  0.98662370  0.36047535  0.23473155  1
  C  C408  1  0.83959428  0.06162374  0.19789286  1
  C  C409  1  0.90033224  0.07908571  0.17551376  1
  Cu  Cu410  1  0.76555528  0.31174731  0.06522916  1
  H  H411  1  0.75059402  0.30079557  0.37202828  1
  N  N412  1  0.95074756  0.05053492  0.17622073  1
  C  C413  1  0.79200647  0.39254297  0.48812017  1
  O  O414  1  0.89834348  0.42070003  0.26967153  1
  H  H415  1  0.86000898  0.46161374  0.41830568  1
  C  C416  1  0.92449909  0.24160267  0.31255367  1
  O  O417  1  0.83276183  0.25816161  0.06801909  1
  C  C418  1  0.96470845  0.26329402  0.04207776  1
  C  C419  1  0.94191453  0.42611389  0.23863317  1
  C  C420  1  0.75782359  0.33521830  0.30851300  1
  H  H421  1  0.83566752  0.05652499  0.26534263  1
  H  H422  1  0.93101964  0.17797445  0.34983292  1
  H  H423  1  0.92987894  0.29968286  0.01033974  1
  O  O424  1  0.95176498  0.00718937  0.37750756  1
  H  H425  1  0.79300403  0.38579578  0.31898462  1
  N  N426  1  0.98751126  0.13178281  0.12978599  1
  C  C427  1  0.81250282  0.48899913  0.03428813  1
  H  H428  1  0.99068103  0.39040608  0.45160683  1
  H  H429  1  0.89356084  0.47313501  0.08791350  1
  O  O430  1  0.93199242  0.35041038  0.86781919  1
  H  H431  1  0.99436858  0.11502266  0.95698503  1
  H  H432  1  0.84308836  0.41000855  0.93500780  1
  O  O433  1  0.85330236  0.17160397  0.71412632  1
  O  O434  1  0.89138878  0.35402482  0.50157484  1
  C  C435  1  0.86325062  0.28182272  0.51749470  1
  H  H436  1  0.95523464  0.32002410  0.74605161  1
  O  O437  1  0.97079818  0.45083924  0.97211005  1
  Cu  Cu438  1  0.91656971  0.18123353  0.65020529  1
  C  C439  1  0.92376365  0.35739025  0.78344935  1
  C  C440  1  0.80490107  0.30120387  0.51123404  1
  H  H441  1  0.78338453  0.11104759  0.56217626  1
  O  O442  1  0.97045373  0.08025223  0.82043589  1
  C  C443  1  0.81550740  0.07634978  0.81547453  1
  H  H444  1  0.78992439  0.28150566  0.91148446  1
  N  N445  1  0.77535069  0.10850170  0.93906423  1
  O  O446  1  0.99840617  0.02142895  0.69339850  1
  O  O447  1  0.88296762  0.20943821  0.54130577  1
  H  H448  1  0.88182557  0.33589433  0.75164681  1
  N  N449  1  0.81085034  0.43641216  0.96702307  1
  C  C450  1  0.95587970  0.43937823  0.90164929  1
  H  H451  1  0.85472927  0.26363943  0.85886741  1
  C  C452  1  0.84012301  0.09353314  0.73412676  1
  C  C453  1  0.92995215  0.45882973  0.75963996  1
  C  C454  1  0.80103212  0.14286274  0.87492130  1
  C  C455  1  0.80982045  0.24530883  0.86005351  1
  H  H456  1  0.96616751  0.20680515  0.89754104  1
  H  H457  1  0.85708180  0.47943934  0.53289280  1
  H  H458  1  0.79388092  0.27132837  0.80051122  1
  Cu  Cu459  1  0.92655746  0.01976237  0.65273271  1
  C  C460  1  0.75882110  0.24637237  0.52757537  1
  C  C461  1  0.99314393  0.14762487  0.89307860  1
  O  O462  1  0.85481299  0.02985006  0.68621160  1
  O  O463  1  0.98660399  0.49003121  0.55966967  1
  N  N464  1  0.76863208  0.00563601  0.91576205  1
  H  H465  1  0.92808141  0.49918538  0.62803581  1
  C  C466  1  0.76985490  0.87231094  0.28641722  1
  C  C467  1  0.94467827  0.79456335  0.29276632  1
  H  H468  1  0.83077793  0.57372433  0.22836442  1
  C  C469  1  0.86847607  0.83364407  0.04743790  1
  O  O470  1  0.80400815  0.84322086  0.42775571  1
  O  O471  1  0.89753828  0.92356246  0.04737865  1
  H  H472  1  0.84864913  0.80068172  0.33251230  1
  H  H473  1  0.93920059  0.78018108  0.36118057  1
  C  C474  1  0.80294120  0.81023035  0.34646875  1
  H  H475  1  0.91412328  0.82886778  0.25889922  1
  C  C476  1  0.91520974  0.59678568  0.35500291  1
  O  O477  1  0.84795472  0.80267522  0.10705215  1
  H  H478  1  0.93318446  0.61974424  0.29320386  1
  H  H479  1  0.81341748  0.65683955  0.02504291  1
  H  H480  1  0.78662704  0.74163779  0.34261982  1
  O  O481  1  0.77955156  0.99226379  0.47902975  1
  C  C482  1  0.75802095  0.94735089  0.33888612  1
  C  C483  1  0.85336497  0.59642735  0.34841429  1
  C  C484  1  0.77897923  0.94108512  0.42269590  1
  N  N485  1  0.81558334  0.58215245  0.28941412  1
  C  C486  1  0.83335053  0.61078696  0.43428668  1
  H  H487  1  0.93309348  0.52776993  0.37179782  1
  H  H488  1  0.98640658  0.84978895  0.12372488  1
  C  C489  1  0.77889476  0.61473181  0.46583425  1
  O  O490  1  0.96420529  0.51028683  0.18858418  1
  C  C491  1  0.75758813  0.51239965  0.05377485  1
  O  O492  1  0.92661723  0.61823344  0.45923056  1
  C  C493  1  0.97588957  0.89547350  0.48333832  1
  H  H494  1  0.86921341  0.96173403  0.38507072  1
  H  H495  1  0.86795086  0.58126404  0.10646155  1
  C  C496  1  0.90547099  0.98549700  0.42590210  1
  C  C497  1  0.91836747  0.91622128  0.49679485  1
  Cu  Cu498  1  0.99129602  0.96541927  0.22582086  1
  C  C499  1  0.99394900  0.78029537  0.25875357  1
  C  C500  1  0.99903006  0.94310646  0.41071111  1
  H  H501  1  0.99326663  0.93553697  0.07255053  1
  N  N502  1  0.75067319  0.88415313  0.21191514  1
  O  O503  1  0.76070191  0.63750375  0.15553418  1
  C  C504  1  0.86777739  0.52616003  0.05933715  1
  H  H505  1  0.82289190  0.99719353  0.17600807  1
  C  C506  1  0.87834149  0.62515901  0.49505167  1
  C  C507  1  0.80583066  0.66253993  0.95291243  1
  Cu  Cu508  1  0.91578424  0.86739281  0.72575660  1
  Cu  Cu509  1  0.94564351  0.71189216  0.65624484  1
  Cu  Cu510  1  0.83919561  0.84059655  0.62269594  1
  C  C511  1  0.89935677  0.85897230  0.90422939  1
  N  N512  1  0.90243167  0.86895205  0.55732959  1
  N  N513  1  0.89996911  0.82648956  0.83185343  1
  C  C514  1  0.84700324  0.72630797  0.91196530  1
  H  H515  1  0.96294200  0.64845586  0.95133511  1
  N  N516  1  0.86328207  0.73112328  0.83260026  1
  O  O517  1  0.86030442  0.64377072  0.56783365  1
  H  H518  1  0.95762940  0.73206965  0.86675646  1
  N  N519  1  0.95946940  0.80794881  0.58536255  1
  H  H520  1  0.95604678  0.96553747  0.94684335  1
  Cu  Cu521  1  0.85246899  0.68000698  0.72643112  1
  C  C522  1  0.78743926  0.89687069  0.81534772  1
  N  N523  1  0.77298982  0.81024298  0.67228463  1
  N  N524  1  0.92648229  0.50968283  0.69407290  1
  N  N525  1  0.94698878  0.61308202  0.73847019  1
  C  C526  1  0.78957343  0.63883415  0.55544374  1
  H  H527  1  0.80863857  0.59636177  0.92259767  1
  H  H528  1  0.76508695  0.58376053  0.81430949  1
  H  H529  1  0.77221743  0.58748527  0.60390071  1
  N  N530  1  0.77848696  0.71396971  0.71686701  1
  H  H531  1  0.80563789  0.89516810  0.75124476  1
  C  C532  1  0.97735269  0.66885834  0.88579716  1
  C  C533  1  0.95844448  0.59819881  0.82112860  1
  C  C534  1  0.86807001  0.80290658  0.95726263  1
  H  H535  1  0.80895862  0.84631632  0.85702926  1
  C  C536  1  0.79380170  0.99268084  0.84698395  1
  C  C537  1  0.91346041  0.93989179  0.96768617  1
  H  H538  1  0.76262098  0.68864346  0.93965300  1
  C  C539  1  0.99795507  0.82128818  0.52950774  1
  H  H540  1  0.76499949  0.70048874  0.56656424  1
  C  C541  1  0.94827001  0.50524696  0.83287312  1
  H  H542  1  0.88342444  0.99988499  0.95450212  1
  H  H543  1  0.89167200  0.55013199  0.99865517  1
