# generated using pymatgen
data_Zn2H7C18N3O8
_symmetry_space_group_name_H-M   'P 1'
_cell_length_a   15.25480839
_cell_length_b   30.34129160
_cell_length_c   21.61233704
_cell_angle_alpha   90.00000000
_cell_angle_beta   90.00000000
_cell_angle_gamma   90.00000000
_symmetry_Int_Tables_number   1
_chemical_formula_structural   Zn2H7C18N3O8
_chemical_formula_sum   'Zn32 H112 C288 N48 O128'
_cell_volume   10003.28294079
_cell_formula_units_Z   16
loop_
 _symmetry_equiv_pos_site_id
 _symmetry_equiv_pos_as_xyz
  1  'x, y, z'
loop_
 _atom_site_type_symbol
 _atom_site_label
 _atom_site_symmetry_multiplicity
 _atom_site_fract_x
 _atom_site_fract_y
 _atom_site_fract_z
 _atom_site_occupancy
  N  N0  1  0.35609874  0.12812421  0.15953144  1
  Zn  Zn1  1  0.40471033  0.18772305  0.15081203  1
  Zn  Zn2  1  0.26951993  0.08853590  0.20724652  1
  O  O3  1  0.42733879  0.20609439  0.44430354  1
  N  N4  1  0.37995994  0.05853541  0.24708847  1
  N  N5  1  0.24208258  0.08025482  0.11023001  1
  Zn  Zn6  1  0.22795882  0.14567068  0.11837045  1
  O  O7  1  0.14108181  0.05847486  0.10917730  1
  H  H8  1  0.25857000  0.16574661  0.28393962  1
  C  C9  1  0.14666879  0.18276531  0.22262065  1
  O  O10  1  0.12757861  0.10319058  0.23126824  1
  C  C11  1  0.08873285  0.13915864  0.22776483  1
  C  C12  1  0.22586505  0.18818470  0.25136240  1
  Zn  Zn13  1  0.37060263  0.09050492  0.08835409  1
  N  N14  1  0.31445884  0.18617137  0.08762202  1
  N  N15  1  0.43756895  0.16802066  0.23646184  1
  C  C16  1  0.36081753  0.23873410  0.26441680  1
  O  O17  1  0.10040946  0.18906644  0.38423151  1
  C  C18  1  0.27998083  0.05553016  0.40004239  1
  H  H19  1  0.25943821  0.02090311  0.40009611  1
  H  H20  1  0.14851802  0.23425677  0.00944604  1
  C  C21  1  0.23876334  0.08259696  0.44223992  1
  H  H22  1  0.04032275  0.20658765  0.17163769  1
  C  C23  1  0.37489280  0.04522810  0.30866671  1
  Zn  Zn24  1  0.45479304  0.10672978  0.21245926  1
  C  C25  1  0.10381466  0.21590385  0.19016583  1
  H  H26  1  0.41995073  0.13548824  0.33613572  1
  C  C27  1  0.13723057  0.01980875  0.08143715  1
  C  C28  1  0.33266276  0.14466644  0.41421550  1
  H  H29  1  0.04221322  0.03096115  0.18795376  1
  C  C30  1  0.03148035  0.19702624  0.40885464  1
  O  O31  1  0.40756756  0.20899373  0.29008149  1
  C  C32  1  0.34102137  0.07549682  0.35695334  1
  O  O33  1  0.01184463  0.14355680  0.21764173  1
  C  C34  1  0.37009656  0.12018030  0.36762086  1
  N  N35  1  0.47590531  0.06794291  0.13328650  1
  C  C36  1  0.26452711  0.22990912  0.24242731  1
  C  C37  1  0.26822504  0.12542999  0.44967785  1
  C  C38  1  0.35196477  0.19580538  0.43267844  1
  C  C39  1  0.39653834  0.00038475  0.31892742  1
  C  C40  1  0.32447791  0.19490175  0.02686107  1
  O  O41  1  0.16516469  0.01517024  0.03028795  1
  O  O42  1  0.28911665  0.21865891  0.42780502  1
  Zn  Zn43  1  0.43067991  0.01123919  0.18239581  1
  O  O44  1  0.14704610  0.02710521  0.48902866  1
  C  C45  1  0.16841357  0.06549012  0.48588827  1
  H  H46  1  0.23756092  0.14495081  0.48724670  1
  C  C47  1  0.29180555  0.23935088  0.00470287  1
  H  H48  1  0.17588893  0.18855451  0.61737979  1
  C  C49  1  0.16787624  0.21948674  0.58954904  1
  C  C50  1  0.00851142  0.20486931  0.58171876  1
  Zn  Zn51  1  0.42155601  0.12477502  0.63501068  1
  O  O52  1  0.34738146  0.20273981  0.61960250  1
  O  O53  1  0.41476687  0.16002656  0.77175361  1
  C  C54  1  0.37683604  0.04842792  0.94036851  1
  H  H55  1  0.37609476  0.03532250  0.77959820  1
  C  C56  1  0.34676097  0.16209797  0.98281545  1
  C  C57  1  0.38592381  0.09586067  0.94116436  1
  C  C58  1  0.40889562  0.11987959  0.88784792  1
  C  C59  1  0.38002938  0.02775949  0.88312299  1
  C  C60  1  0.39949038  0.09603648  0.83179089  1
  O  O61  1  0.40605970  0.09887402  0.71793131  1
  C  C62  1  0.40615824  0.12056314  0.77022498  1
  C  C63  1  0.32675124  0.24126168  0.59529986  1
  H  H64  1  0.28219140  0.05209602  0.58134353  1
  C  C65  1  0.46059264  0.05594509  0.54485949  1
  H  H66  1  0.37232472  0.02911743  0.98328333  1
  C  C67  1  0.38402095  0.05096022  0.82703041  1
  H  H68  1  0.34881012  0.17046695  0.93280015  1
  N  N69  1  0.41488436  0.17345244  0.57453694  1
  C  C70  1  0.32111821  0.02544036  0.59839199  1
  H  H71  1  0.43314809  0.15337824  0.88905596  1
  N  N72  1  0.44200132  0.09727080  0.55782771  1
  O  O73  1  0.14599211  0.03190532  0.64786555  1
  C  C74  1  0.40992068  0.01978346  0.57864487  1
  O  O75  1  0.13349467  0.09442233  0.52174039  1
  C  C76  1  0.08879654  0.23529426  0.56770787  1
  O  O77  1  0.02177337  0.16300214  0.58671401  1
  N  N78  1  0.37440990  0.12164440  0.99685555  1
  Zn  Zn79  1  0.01451510  0.12074109  0.50941339  1
  Zn  Zn80  1  0.49798822  0.14752329  0.50643823  1
  C  C81  1  0.00776174  0.31391358  0.35309096  1
  C  C82  1  0.10820339  0.29838879  0.15331208  1
  C  C83  1  0.43629357  0.47908521  0.43375351  1
  H  H84  1  0.26621754  0.29651071  0.20581762  1
  C  C85  1  0.15960381  0.33877819  0.15380119  1
  N  N86  1  0.11363954  0.37431544  0.14158465  1
  H  H87  1  0.23878969  0.40931941  0.06477924  1
  C  C88  1  0.15836708  0.41549715  0.15020324  1
  N  N89  1  0.19359444  0.41749921  0.46842713  1
  O  O90  1  0.38741856  0.27495081  0.25545528  1
  C  C91  1  0.27493317  0.47866995  0.41543801  1
  H  H92  1  0.10765834  0.43016610  0.24788478  1
  C  C93  1  0.22054473  0.42868495  0.10420296  1
  C  C94  1  0.26811207  0.44653294  0.46316990  1
  H  H95  1  0.22610001  0.34486926  0.16858380  1
  C  C96  1  0.35985295  0.49459044  0.40487019  1
  C  C97  1  0.13639783  0.44216041  0.20306022  1
  C  C98  1  0.14558876  0.25774298  0.18138847  1
  C  C99  1  0.24304528  0.47263316  0.10890524  1
  C  C100  1  0.21193349  0.38045481  0.49405258  1
  Zn  Zn101  1  0.06712951  0.42543250  0.44003440  1
  C  C102  1  0.30586284  0.48479581  0.05530834  1
  O  O103  1  0.02388791  0.48173363  0.10416784  1
  O  O104  1  0.13071955  0.32669434  0.29616773  1
  C  C105  1  0.04229798  0.27167649  0.36365050  1
  H  H106  1  0.44195215  0.37266177  0.30979919  1
  N  N107  1  0.02741942  0.30609906  0.13649973  1
  O  O108  1  0.41475460  0.33913246  0.40999430  1
  O  O109  1  0.04193661  0.38146363  0.29472540  1
  C  C110  1  0.16027790  0.48625589  0.20084340  1
  C  C111  1  0.22800566  0.26487550  0.20970862  1
  H  H112  1  0.21627460  0.48828668  0.38483039  1
  C  C113  1  0.49151871  0.34443472  0.42453789  1
  O  O114  1  0.44000061  0.41495817  0.19768121  1
  C  C115  1  0.06350773  0.34590009  0.31217273  1
  C  C116  1  0.42539276  0.45005592  0.48589123  1
  H  H117  1  0.11204881  0.26150638  0.35210102  1
  O  O118  1  0.32660447  0.45748826  0.01520111  1
  O  O119  1  0.10266109  0.49717688  0.30045594  1
  C  C120  1  0.20559251  0.25566752  0.00060305  1
  N  N121  1  0.06308428  0.37402609  0.49038945  1
  C  C122  1  0.18667408  0.29723774  0.97869371  1
  H  H123  1  0.18834053  0.42020726  0.60593568  1
  O  O124  1  0.24093764  0.31812086  0.70298562  1
  C  C125  1  0.23082220  0.35054615  0.67231913  1
  O  O126  1  0.28641299  0.36736612  0.63724997  1
  C  C127  1  0.35926910  0.26938698  0.99046502  1
  C  C128  1  0.13934817  0.37280512  0.67287976  1
  O  O129  1  0.39136328  0.37816856  0.92394136  1
  C  C130  1  0.13580455  0.41070251  0.63563923  1
  O  O131  1  0.48532071  0.32978297  0.95900400  1
  C  C132  1  0.33633393  0.31002474  0.96875343  1
  H  H133  1  0.27658340  0.31359890  0.54939039  1
  C  C134  1  0.12445948  0.47499661  0.78968390  1
  C  C135  1  0.06060386  0.47980697  0.61568299  1
  C  C136  1  0.20482088  0.48459894  0.76448676  1
  C  C137  1  0.07389247  0.35719539  0.71222139  1
  O  O138  1  0.49203828  0.41361448  0.57161866  1
  H  H139  1  0.43051271  0.26302217  0.99811136  1
  Zn  Zn140  1  0.30797960  0.44019238  0.91217348  1
  H  H141  1  0.24063705  0.36128908  0.94797019  1
  H  H142  1  0.11777386  0.44497008  0.81615318  1
  C  C143  1  0.13455600  0.30594152  0.53222626  1
  N  N144  1  0.16232587  0.43764155  0.92297156  1
  O  O145  1  0.25781778  0.42066330  0.82633711  1
  C  C146  1  0.26910589  0.44776178  0.77947766  1
  C  C147  1  0.25165742  0.32722313  0.96247251  1
  H  H148  1  0.34204397  0.41558635  0.54332946  1
  C  C149  1  0.41006551  0.34151198  0.94894460  1
  C  C150  1  0.05943273  0.43421591  0.64431152  1
  H  H151  1  0.08436306  0.32815092  0.74186077  1
  C  C152  1  0.06566255  0.27666603  0.53903020  1
  O  O153  1  0.37824671  0.26868596  0.57976435  1
  O  O154  1  0.32887305  0.44374009  0.74396812  1
  O  O155  1  0.07745795  0.34986629  0.96394919  1
  O  O156  1  0.42073821  0.48109830  0.90040220  1
  C  C157  1  0.21803025  0.29246934  0.55183309  1
  Zn  Zn158  1  0.02908782  0.43152560  0.90287040  1
  H  H159  1  0.20874775  0.48261964  0.60019637  1
  C  C160  1  0.13437632  0.35290784  0.50641551  1
  C  C161  1  0.08535425  0.31046790  0.97652277  1
  C  C162  1  0.45630870  0.49514848  0.85220143  1
  C  C163  1  0.23456642  0.25153394  0.58085465  1
  C  C164  1  0.14217007  0.49662917  0.59597445  1
  N  N165  1  0.12133922  0.44414920  0.97327688  1
  C  C166  1  0.34215894  0.43618453  0.50127259  1
  H  H167  1  0.27989285  0.37089461  0.50245003  1
  O  O168  1  0.02801211  0.28431202  0.98678170  1
  C  C169  1  0.17348646  0.67016343  0.08571212  1
  H  H170  1  0.17100565  0.69322594  0.12512435  1
  C  C171  1  0.32953086  0.65032034  0.09908731  1
  C  C172  1  0.24268060  0.64447005  0.06671861  1
  O  O173  1  0.33031491  0.52295420  0.05450265  1
  O  O174  1  0.33592384  0.67911003  0.13903130  1
  C  C175  1  0.24635983  0.57731988  0.49741651  1
  O  O176  1  0.39335827  0.63053545  0.07455602  1
  Zn  Zn177  1  0.45637906  0.56498938  0.07131701  1
  C  C178  1  0.06017214  0.71865571  0.42804620  1
  H  H179  1  0.22826521  0.53873191  0.15393062  1
  C  C180  1  0.10026616  0.71103633  0.32184734  1
  O  O181  1  0.30735775  0.54673292  0.33033334  1
  C  C182  1  0.03210790  0.57593629  0.40915865  1
  H  H183  1  0.18757176  0.58700721  0.47152697  1
  N  N184  1  0.01275340  0.68270958  0.07503785  1
  C  C185  1  0.11271837  0.69784578  0.38264354  1
  C  C186  1  0.21114766  0.50252551  0.15212510  1
  C  C187  1  0.15829453  0.69139524  0.27118518  1
  O  O188  1  0.15564678  0.55611733  0.25707045  1
  O  O189  1  0.05971706  0.54268062  0.42988762  1
  O  O190  1  0.44866928  0.53411703  0.33641659  1
  C  C191  1  0.37404589  0.53010937  0.35378912  1
  O  O192  1  0.40354502  0.64392817  0.41097360  1
  O  O193  1  0.08173341  0.60655871  0.38426837  1
  C  C194  1  0.13934222  0.51419057  0.25774303  1
  O  O195  1  0.14072529  0.70405567  0.21816002  1
  O  O196  1  0.21964290  0.66530059  0.28273690  1
  H  H197  1  0.15656294  0.67184270  0.40200040  1
  C  C198  1  0.09136161  0.66223797  0.05718698  1
  C  C199  1  0.33847888  0.62478328  0.42907604  1
  Zn  Zn200  1  0.20238120  0.60202800  0.33151372  1
  O  O201  1  0.26216347  0.63629266  0.41141100  1
  H  H202  1  0.42617800  0.72648659  0.02883540  1
  C  C203  1  0.33133687  0.59198157  0.48476133  1
  C  C204  1  0.07078641  0.70686987  0.49693375  1
  C  C205  1  0.23475099  0.61431923  0.01602544  1
  C  C206  1  0.36017079  0.74100077  0.04100458  1
  C  C207  1  0.20882177  0.74673953  0.01119996  1
  O  O208  1  0.04287648  0.55251520  0.09270260  1
  C  C209  1  0.01296430  0.52297938  0.12205275  1
  C  C210  1  0.04267998  0.74294582  0.30170398  1
  C  C211  1  0.07883684  0.63254661  0.00565724  1
  N  N212  1  0.06420261  0.64078278  0.55919457  1
  Zn  Zn213  1  0.11427142  0.67808997  0.63831720  1
  O  O214  1  0.12267095  0.71536775  0.72226906  1
  C  C215  1  0.31481943  0.53502198  0.58023371  1
  N  N216  1  0.15172370  0.53167284  0.55975605  1
  C  C217  1  0.13706660  0.57787830  0.92607597  1
  O  O218  1  0.39826276  0.70021964  0.92872365  1
  C  C219  1  0.05061259  0.50385572  0.78411991  1
  O  O220  1  0.49431488  0.58269541  0.97243742  1
  H  H221  1  0.29228421  0.52932385  0.72014391  1
  C  C222  1  0.22384370  0.52097792  0.73216072  1
  C  C223  1  0.40784813  0.58075237  0.51531432  1
  C  C224  1  0.06641888  0.74367748  0.53698954  1
  O  O225  1  0.26072265  0.69454018  0.90112765  1
  C  C226  1  0.15119753  0.54939298  0.72282904  1
  O  O227  1  0.45724108  0.51636980  0.65472274  1
  O  O228  1  0.10178746  0.62031429  0.68951511  1
  O  O229  1  0.19778279  0.55457081  0.90923130  1
  O  O230  1  0.23593462  0.60286839  0.66576318  1
  H  H231  1  0.01568663  0.56406747  0.73269846  1
  C  C232  1  0.06829344  0.54116871  0.74377996  1
  N  N233  1  0.07322252  0.73946999  0.59756043  1
  O  O234  1  0.42573562  0.52510456  0.82111924  1
  C  C235  1  0.31943955  0.70724944  0.93570537  1
  C  C236  1  0.23889513  0.54617276  0.54525471  1
  C  C237  1  0.15396474  0.61070749  0.98728611  1
  C  C238  1  0.39600727  0.55338896  0.56628912  1
  Zn  Zn239  1  0.04616766  0.57336462  0.55226145  1
  C  C240  1  0.16734317  0.59345870  0.68736024  1
  C  C241  1  0.05442326  0.72637597  0.75327197  1
  H  H242  1  0.31197783  0.51384992  0.62239390  1
  C  C243  1  0.46927794  0.53794162  0.60870156  1
  O  O244  1  0.06727785  0.57997495  0.89899894  1
  H  H245  1  0.28969005  0.59548065  0.99239547  1
  H  H246  1  0.15171365  0.73657932  0.98491381  1
  H  H247  1  0.01696888  0.62399775  0.98104048  1
  C  C248  1  0.29222157  0.73212073  0.99892050  1
  N  N249  1  0.05924607  0.66476879  0.50988973  1
  H  H250  1  0.47051557  0.59499568  0.50376249  1
  C  C251  1  0.39820911  0.93145816  0.10662550  1
  H  H252  1  0.30650562  0.91106451  0.31326580  1
  O  O253  1  0.26259746  0.83080184  0.35274343  1
  O  O254  1  0.37116474  0.78415325  0.35270025  1
  H  H255  1  0.38962224  0.98323010  0.36371036  1
  C  C256  1  0.09247225  0.94218815  0.08843176  1
  C  C257  1  0.04725986  0.86111219  0.10540530  1
  C  C258  1  0.34072887  0.82173483  0.34408641  1
  C  C259  1  0.12223941  0.83645232  0.09233790  1
  C  C260  1  0.08838378  0.98370348  0.11527167  1
  C  C261  1  0.27231840  0.78552413  0.10566653  1
  H  H262  1  0.18922526  0.85017459  0.08515928  1
  H  H263  1  0.12892211  0.93351081  0.04565436  1
  C  C264  1  0.00162893  0.96024183  0.20115390  1
  C  C265  1  0.05050844  0.90881766  0.12369076  1
  C  C266  1  0.37577078  0.90187359  0.30443313  1
  H  H267  1  0.26603066  0.80773322  0.14581749  1
  H  H268  1  0.03986188  0.75322854  0.25190264  1
  O  O269  1  0.32589004  0.94390578  0.09616978  1
  C  C270  1  0.20155861  0.77650715  0.06345679  1
  N  N271  1  0.11952811  0.79233053  0.07859180  1
  C  C272  1  0.43262926  0.77136862  0.14373617  1
  C  C273  1  0.43562615  0.89258388  0.06913287  1
  O  O274  1  0.44501794  0.94778505  0.15086577  1
  C  C275  1  0.43611707  0.93174743  0.28015068  1
  C  C276  1  0.39606166  0.88501614  0.01366435  1
  N  N277  1  0.42036488  0.97877204  0.26901703  1
  C  C278  1  0.40137741  0.85786522  0.31306009  1
  O  O279  1  0.42474625  0.79891408  0.18378417  1
  C  C280  1  0.35098737  0.76531392  0.09444568  1
  C  C281  1  0.04399021  0.99514530  0.17041520  1
  C  C282  1  0.48469936  0.84348562  0.30173574  1
  C  C283  1  0.01130227  0.91720110  0.18117986  1
  Zn  Zn284  1  0.00392054  0.75299547  0.09178996  1
  H  H285  1  0.29511095  0.92733253  0.67465543  1
  C  C286  1  0.32847122  0.95331398  0.64944611  1
  O  O287  1  0.36979917  0.82876094  0.50752997  1
  C  C288  1  0.04708056  0.77668886  0.63229757  1
  C  C289  1  0.11006121  0.80024702  0.66540860  1
  N  N290  1  0.41815563  0.85618342  0.86076198  1
  N  N291  1  0.26766131  0.81847440  0.86028540  1
  N  N292  1  0.46289146  0.88500398  0.76489626  1
  C  C293  1  0.42556656  0.79946060  0.50661164  1
  O  O294  1  0.35409490  0.95637561  0.92614319  1
  C  C295  1  0.18434529  0.79673551  0.86270162  1
  C  C296  1  0.45414997  0.98142252  0.59599199  1
  C  C297  1  0.07246941  0.75755141  0.80868350  1
  O  O298  1  0.43906507  0.88009055  0.68680662  1
  C  C299  1  0.41529423  0.94857222  0.63313778  1
  C  C300  1  0.08631126  0.83369634  0.70617169  1
  O  O301  1  0.38426110  0.95729619  0.82766987  1
  O  O302  1  0.14425544  0.88241800  0.78222009  1
  C  C303  1  0.11783732  0.81145284  0.90511461  1
  H  H304  1  0.28615044  0.80089672  0.95438740  1
  C  C305  1  0.15927921  0.85339700  0.74489558  1
  O  O306  1  0.23903742  0.83938520  0.73597493  1
  C  C307  1  0.30913927  0.81765746  0.91319113  1
  H  H308  1  0.13291183  0.83099050  0.94455380  1
  C  C309  1  0.39151074  0.83947230  0.91356786  1
  C  C310  1  0.43340273  0.85217961  0.97552797  1
  C  C311  1  0.47321204  0.91108336  0.64966073  1
  C  C312  1  0.16007054  0.76755301  0.81498145  1
  Zn  Zn313  1  0.35030151  0.85095439  0.78176143  1
  H  H314  1  0.17861860  0.79308566  0.66256933  1
  C  C315  1  0.36839611  0.97639910  0.87924999  1
  H  H316  1  0.20623501  0.75579451  0.78002481  1
  H  H317  1  0.05746118  0.77855761  0.52520469  1
  C  C318  1  0.03149327  0.80013574  0.89570884  1
  O  O319  1  0.41361635  0.76130064  0.52402283  1
  H  H320  1  0.34068376  0.90556395  0.99833258  1
  C  C321  1  0.00693246  0.77260641  0.84761068  1
  O  O322  1  0.16102084  0.96536128  0.68483970  1
  C  C323  1  0.28400693  0.99180626  0.63228545  1
  C  C324  1  0.18832379  0.99738092  0.65527391  1
  C  C325  1  0.65463272  0.13054317  0.24256462  1
  C  C326  1  0.63649808  0.13885748  0.30620164  1
  C  C327  1  0.74039530  0.19973921  0.31094230  1
  C  C328  1  0.67639602  0.17338891  0.33797041  1
  C  C329  1  0.71326485  0.16070325  0.21385226  1
  C  C330  1  0.75953749  0.19133191  0.24770320  1
  H  H331  1  0.72809471  0.15935160  0.16309600  1
  N  N332  1  0.59690426  0.10525014  0.20502399  1
  C  C333  1  0.62369297  0.08663611  0.15324683  1
  H  H334  1  0.69539557  0.09014217  0.14732697  1
  O  O335  1  0.59155334  0.02029689  0.26270628  1
  C  C336  1  0.65686864  0.18434573  0.40807654  1
  O  O337  1  0.98771789  0.16718632  0.43208386  1
  C  C338  1  0.82886032  0.21972113  0.21412248  1
  C  C339  1  0.55970257  0.06805164  0.11275952  1
  H  H340  1  0.58171742  0.11999224  0.32525515  1
  O  O341  1  0.84812253  0.21302225  0.15979667  1
  H  H342  1  0.82232193  0.01623058  0.35494986  1
  O  O343  1  0.68643589  0.21833689  0.42634260  1
  O  O344  1  0.60093920  0.16165244  0.43649142  1
  C  C345  1  0.78218195  0.05988265  0.43055802  1
  C  C346  1  0.63107899  0.07319188  0.43957045  1
  C  C347  1  0.61846197  0.05292799  0.38050896  1
  H  H348  1  0.77717388  0.22505797  0.34009840  1
  H  H349  1  0.87793392  0.23012522  0.45699712  1
  C  C350  1  0.87882921  0.06284932  0.44986838  1
  C  C351  1  0.77018065  0.03454354  0.37615242  1
  C  C352  1  0.58078612  0.05667330  0.04619871  1
  C  C353  1  0.56631153  0.22096080  0.09391402  1
  H  H354  1  0.55710872  0.01263045  0.49174883  1
  C  C355  1  0.68799596  0.03398401  0.34905135  1
  H  H356  1  0.54894194  0.05495842  0.36020056  1
  C  C357  1  0.71722337  0.08248722  0.46207073  1
  N  N358  1  0.56109008  0.08314534  0.48271727  1
  O  O359  1  0.93317183  0.04822742  0.41383196  1
  C  C360  1  0.58827149  0.01211743  0.02559394  1
  O  O361  1  0.92791648  0.00482788  0.27393289  1
  O  O362  1  0.54971279  0.20136466  0.04781279  1
  C  C363  1  0.66345962  0.01470264  0.28579412  1
  H  H364  1  0.61391946  0.12594934  0.02922427  1
  O  O365  1  0.54124132  0.20661452  0.14680338  1
  H  H366  1  0.72909835  0.10838601  0.49516264  1
  C  C367  1  0.99161719  0.24416293  0.39859391  1
  C  C368  1  0.60560626  0.09257065  0.00849854  1
  O  O369  1  0.62184782  0.15611212  0.90574219  1
  H  H370  1  0.69132243  0.22725112  0.54088876  1
  H  H371  1  0.62560039  0.03439339  0.87415094  1
  O  O372  1  0.65787596  0.10528341  0.84443070  1
  C  C373  1  0.62607191  0.17031930  0.62248811  1
  O  O374  1  0.57489380  0.14849656  0.65482826  1
  C  C375  1  0.62311349  0.22264965  0.62650117  1
  O  O376  1  0.93599041  0.22014906  0.58130186  1
  O  O377  1  0.67832590  0.15204998  0.58961551  1
  C  C378  1  0.61859124  0.03908983  0.92408675  1
  C  C379  1  0.63417002  0.11757488  0.89514597  1
  C  C380  1  0.61988160  0.08220135  0.94656171  1
  H  H381  1  0.57053497  0.22232775  0.72231398  1
  C  C382  1  0.65907907  0.24739686  0.57921540  1
  C  C383  1  0.60086268  0.00524950  0.96466564  1
  C  C384  1  0.59151305  0.24037739  0.68091868  1
  C  C385  1  0.53127211  0.04533601  0.50656135  1
  O  O386  1  0.89798858  0.08096330  0.50062973  1
  N  N387  1  0.89077767  0.36443436  0.16445306  1
  C  C388  1  0.74538907  0.33719132  0.20859107  1
  O  O389  1  0.79735098  0.37206164  0.20446076  1
  C  C390  1  0.70026642  0.31920136  0.15135137  1
  O  O391  1  0.72612921  0.32211784  0.25730738  1
  N  N392  1  0.95326313  0.46566220  0.35651508  1
  C  C393  1  0.74234262  0.29458288  0.49502557  1
  C  C394  1  0.79066609  0.46938110  0.33292629  1
  H  H395  1  0.75528260  0.37201215  0.09572095  1
  C  C396  1  0.72285043  0.34040314  0.09616512  1
  H  H397  1  0.63395928  0.26424725  0.19741902  1
  H  H398  1  0.71552801  0.26114019  0.48728118  1
  Zn  Zn399  1  0.91642642  0.29876913  0.18256011  1
  N  N400  1  0.95555556  0.44028365  0.40443772  1
  O  O401  1  0.78047196  0.47098138  0.09122794  1
  C  C402  1  0.88222236  0.29711552  0.41774686  1
  C  C403  1  0.92854932  0.32638584  0.37905230  1
  H  H404  1  0.73966819  0.48185510  0.29830143  1
  N  N405  1  0.83390294  0.35527779  0.48433093  1
  N  N406  1  0.91321380  0.40404196  0.06137904  1
  C  C407  1  0.69281319  0.32265486  0.04012874  1
  C  C408  1  0.81384052  0.31516860  0.46378880  1
  H  H409  1  0.65056500  0.38987520  0.44804429  1
  Zn  Zn410  1  0.82950504  0.41602606  0.44101523  1
  C  C411  1  0.64495904  0.28231169  0.04039814  1
  H  H412  1  0.67145159  0.44781207  0.26052615  1
  C  C413  1  0.62059294  0.39771488  0.40189318  1
  N  N414  1  0.75616438  0.43796885  0.36941439  1
  C  C415  1  0.54254907  0.37958640  0.38319205  1
  C  C416  1  0.55659044  0.41130900  0.28219182  1
  H  H417  1  0.93929395  0.46751983  0.21184894  1
  H  H418  1  0.90270555  0.36046656  0.37277089  1
  C  C419  1  0.63678428  0.42920267  0.29664124  1
  Zn  Zn420  1  0.85066126  0.42452706  0.14293781  1
  C  C421  1  0.67185883  0.42547201  0.35976034  1
  C  C422  1  0.65167806  0.28019449  0.15460739  1
  C  C423  1  0.62564000  0.26327829  0.09715302  1
  C  C424  1  0.88105506  0.48045993  0.32555391  1
  C  C425  1  0.50806463  0.38684411  0.32426826  1
  O  O426  1  0.53299354  0.32482540  0.46679704  1
  Zn  Zn427  1  0.98992762  0.44590007  0.02656872  1
  Zn  Zn428  1  0.99493613  0.36758516  0.10973643  1
  C  C429  1  0.91070729  0.25221525  0.42386016  1
  C  C430  1  0.51453779  0.42232643  0.21109987  1
  O  O431  1  0.85486841  0.25531430  0.23857931  1
  H  H432  1  0.50467661  0.49205996  0.42299390  1
  O  O433  1  0.57063633  0.43939862  0.17710511  1
  N  N434  1  0.85728292  0.42182207  0.52913680  1
  Zn  Zn435  1  0.85124039  0.47823770  0.56574043  1
  N  N436  1  0.98149740  0.49544171  0.59503386  1
  C  C437  1  0.69346571  0.46768613  0.69506082  1
  O  O438  1  0.73890620  0.43861419  0.66797675  1
  N  N439  1  0.73869412  0.44700378  0.58450993  1
  Zn  Zn440  1  0.75616350  0.38474900  0.55664767  1
  C  C441  1  0.64799217  0.45729448  0.75512025  1
  O  O442  1  0.85363050  0.38065326  0.76374881  1
  H  H443  1  0.99499662  0.28325779  0.53122289  1
  C  C444  1  0.65919641  0.29435637  0.58264346  1
  O  O445  1  0.54555971  0.34158122  0.75477022  1
  C  C446  1  0.57637223  0.43920215  0.86955799  1
  C  C447  1  0.66728703  0.36042984  0.94789123  1
  N  N448  1  0.91942597  0.42537425  0.95717036  1
  C  C449  1  0.96195897  0.49639737  0.80902916  1
  H  H450  1  0.60049735  0.34135817  0.95687004  1
  H  H451  1  0.74151032  0.40690918  0.77120742  1
  C  C452  1  0.53930772  0.47030912  0.82952420  1
  C  C453  1  0.68566526  0.42478696  0.79133908  1
  Zn  Zn454  1  0.64687990  0.49215741  0.56808898  1
  H  H455  1  0.62665676  0.34763021  0.64390136  1
  H  H456  1  0.54157018  0.43171358  0.91103327  1
  H  H457  1  0.93621098  0.44278657  0.70028308  1
  C  C458  1  0.69907868  0.39250228  0.90433545  1
  C  C459  1  0.59167530  0.28518459  0.68573789  1
  N  N460  1  0.78127769  0.40379143  0.91762768  1
  O  O461  1  0.93555706  0.32440050  0.77944898  1
  N  N462  1  0.71652216  0.31850373  0.54294459  1
  Zn  Zn463  1  0.94549903  0.37320972  0.52693568  1
  C  C464  1  0.65464123  0.41924012  0.85290885  1
  C  C465  1  0.62238202  0.31203285  0.63880299  1
  C  C466  1  0.57348161  0.48123027  0.77311370  1
  N  N467  1  0.94841542  0.45960225  0.83995114  1
  Zn  Zn468  1  0.84784403  0.44942241  0.89022806  1
  C  C469  1  0.92433910  0.36061076  0.75885287  1
  C  C470  1  0.56116491  0.30249233  0.75542061  1
  Zn  Zn471  1  0.83821811  0.38445308  0.99232283  1
  H  H472  1  0.62026000  0.26711288  0.99680217  1
  N  N473  1  0.72395202  0.35211357  0.99051374  1
  C  C474  1  0.99388402  0.42322178  0.68833373  1
  C  C475  1  0.99958614  0.38270929  0.71717902  1
  O  O476  1  0.55579529  0.27685323  0.79886465  1
  O  O477  1  0.57933783  0.45080575  0.50982156  1
  C  C478  1  0.50258899  0.43665548  0.52708436  1
  H  H479  1  0.69373702  0.66544181  0.16248025  1
  C  C480  1  0.65836857  0.59677552  0.14119401  1
  C  C481  1  0.71473311  0.63265731  0.14086868  1
  C  C482  1  0.79275233  0.62965707  0.10910447  1
  C  C483  1  0.86987699  0.56225812  0.43901823  1
  C  C484  1  0.76093006  0.55150157  0.09277753  1
  N  N485  1  0.82320930  0.70545376  0.11676131  1
  C  C486  1  0.85784623  0.66460737  0.09989878  1
  C  C487  1  0.81584716  0.58674047  0.08413525  1
  C  C488  1  0.94365160  0.65521477  0.07962510  1
  H  H489  1  0.96519243  0.60378697  0.15590156  1
  H  H490  1  0.53950289  0.73969898  0.46918869  1
  C  C491  1  0.93428042  0.50315886  0.22240201  1
  H  H492  1  0.88017944  0.58102100  0.06092160  1
  C  C493  1  0.76456831  0.71977294  0.39771406  1
  H  H494  1  0.88710235  0.53089910  0.45940848  1
  C  C495  1  0.96166699  0.53463982  0.18120450  1
  N  N496  1  0.83075119  0.69371529  0.36982371  1
  C  C497  1  0.94598473  0.58070323  0.19102356  1
  O  O498  1  0.54791997  0.63568240  0.19635835  1
  H  H499  1  0.70190730  0.63688777  0.41752695  1
  C  C500  1  0.83930914  0.64862072  0.39141999  1
  C  C501  1  0.67996837  0.55493356  0.11882907  1
  H  H502  1  0.62852209  0.52951760  0.11972750  1
  C  C503  1  0.86451937  0.64166186  0.24974271  1
  C  C504  1  0.86763106  0.56106543  0.28558707  1
  H  H505  1  0.82471906  0.57251179  0.32195042  1
  O  O506  1  0.78689717  0.64712244  0.26663076  1
  C  C507  1  0.76948371  0.62335748  0.41490922  1
  C  C508  1  0.92424918  0.63033340  0.38850269  1
  C  C509  1  0.89947243  0.59018057  0.24183832  1
  O  O510  1  0.91362746  0.67150481  0.23417473  1
  H  H511  1  0.83970396  0.70041291  0.32365322  1
  C  C512  1  0.93506045  0.58748121  0.41098496  1
  C  C513  1  0.78676179  0.58240887  0.44100196  1
  C  C514  1  0.56583444  0.60127138  0.17007187  1
  N  N515  1  0.86518169  0.74306272  0.11199554  1
  O  O516  1  0.63851473  0.58004105  0.46706514  1
  C  C517  1  0.89779130  0.51617364  0.27974705  1
  C  C518  1  0.79480352  0.50599777  0.06081961  1
  H  H519  1  0.95972298  0.62528777  0.05464698  1
  C  C520  1  0.70666693  0.55818780  0.46499708  1
  H  H521  1  0.97839241  0.65065631  0.37022648  1
  O  O522  1  0.57758509  0.53573594  0.01320894  1
  O  O523  1  0.50773795  0.57208855  0.15853944  1
  C  C524  1  0.70968204  0.74539941  0.41628104  1
  O  O525  1  0.71010995  0.51691592  0.47910064  1
  O  O526  1  0.83208943  0.50805388  0.01110288  1
  O  O527  1  0.54964381  0.63520116  0.74558553  1
  C  C528  1  0.61082210  0.55644801  0.90634741  1
  O  O529  1  0.67330392  0.62147235  0.69876157  1
  H  H530  1  0.87873018  0.55905786  0.80010876  1
  C  C531  1  0.64792005  0.58599805  0.80406187  1
  C  C532  1  0.62088158  0.61686447  0.74170099  1
  C  C533  1  0.71585976  0.55820523  0.80010223  1
  H  H534  1  0.54150777  0.60819971  0.85776784  1
  C  C535  1  0.88494346  0.52399844  0.81649160  1
  C  C536  1  0.55715629  0.55522642  0.96455089  1
  C  C537  1  0.68593899  0.53091929  0.90428722  1
  O  O538  1  0.67512139  0.50384732  0.67004657  1
  O  O539  1  0.54711943  0.54393052  0.58708539  1
  H  H540  1  0.75301773  0.55408001  0.75670804  1
  C  C541  1  0.74383565  0.53066008  0.85227688  1
  C  C542  1  0.59407033  0.58450966  0.85500097  1
  N  N543  1  0.94655148  0.53029030  0.56798202  1
  H  H544  1  0.70416940  0.50991626  0.94399571  1
  N  N545  1  0.82166556  0.50673510  0.85006064  1
  O  O546  1  0.98515667  0.70891828  0.74746994  1
  H  H547  1  0.54729624  0.50721226  0.74020751  1
  N  N548  1  0.93017308  0.81038014  0.10453282  1
  C  C549  1  0.54411968  0.83969896  0.04816609  1
  C  C550  1  0.54639877  0.87443663  0.27999783  1
  O  O551  1  0.59567113  0.93521071  0.42314420  1
  C  C552  1  0.52346153  0.91862543  0.26858250  1
  H  H553  1  0.54010723  0.87737517  0.13449974  1
  N  N554  1  0.95964788  0.85131849  0.11085247  1
  C  C555  1  0.51649761  0.81088903  0.46948046  1
  Zn  Zn556  1  0.79870016  0.80174814  0.11124780  1
  O  O557  1  0.68041346  0.83209566  0.10279307  1
  C  C558  1  0.62324306  0.85922420  0.42633842  1
  C  C559  1  0.67194741  0.82290432  0.40927317  1
  O  O560  1  0.65449178  0.78506514  0.02777554  1
  C  C561  1  0.54038007  0.85322040  0.45198537  1
  C  C562  1  0.65079876  0.90703092  0.41542772  1
  O  O563  1  0.71616642  0.98706876  0.26009730  1
  C  C564  1  0.56332698  0.77369198  0.45813202  1
  C  C565  1  0.99143309  0.76122659  0.34868537  1
  O  O566  1  0.87228587  0.81014413  0.37003731  1
  H  H567  1  0.74021707  0.82426325  0.38884380  1
  C  C568  1  0.63942088  0.85714873  0.27016402  1
  O  O569  1  0.66001528  0.81819955  0.27541451  1
  H  H570  1  0.57585337  0.94349729  0.25846417  1
  O  O571  1  0.69743443  0.88465623  0.25304302  1
  Zn  Zn572  1  0.77321536  0.93254390  0.30638021  1
  C  C573  1  0.62952293  0.81709441  0.05902505  1
  O  O574  1  0.72729022  0.91517880  0.39225532  1
  O  O575  1  0.91440785  0.93292100  0.28335199  1
  C  C576  1  0.92419623  0.79792125  0.33058969  1
  C  C577  1  0.94455812  0.96767406  0.25874576  1
  O  O578  1  0.92171834  0.81076088  0.27705774  1
  C  C579  1  0.64492321  0.78038800  0.42781221  1
  H  H580  1  0.98635692  0.89073673  0.20972968  1
  C  C581  1  0.51108461  0.87101398  0.08895563  1
  H  H582  1  0.95525287  0.76795570  0.43976241  1
  H  H583  1  0.58694786  0.98514491  0.05886310  1
  H  H584  1  0.50255594  0.88394655  0.45900845  1
  H  H585  1  0.50158400  0.80972532  0.31650707  1
  C  C586  1  0.99934417  0.75096388  0.40976797  1
  O  O587  1  0.50395079  0.75345342  0.13671653  1
  H  H588  1  0.90697050  0.76733219  0.62046488  1
  O  O589  1  0.87904837  0.79885250  0.93430833  1
  C  C590  1  0.58995878  0.95644743  0.94433261  1
  O  O591  1  0.58449733  0.94770058  0.88782788  1
  O  O592  1  0.54396832  0.90590176  0.62854645  1
  C  C593  1  0.95258088  0.81775281  0.94048975  1
  O  O594  1  0.81239060  0.86291921  0.72645014  1
  O  O595  1  0.78349917  0.81496204  0.65446994  1
  C  C596  1  0.83224494  0.83466279  0.68858162  1
  C  C597  1  0.95558544  0.78794069  0.64221278  1
  H  H598  1  0.97687922  0.87232434  0.74417702  1
  C  C599  1  0.93433055  0.82255592  0.68080624  1
  O  O600  1  0.96610615  0.84652323  0.97830199  1
  O  O601  1  0.59095154  0.92909136  0.98453112  1
  C  C602  1  0.99650210  0.84529075  0.71459571  1
  H  H603  1  0.53275087  0.79781770  0.96582605  1
  C  C604  1  0.50430707  0.82477331  0.99329687  1
  H  H605  1  0.52338930  0.97383893  0.57931452  1
  Zn  Zn606  1  0.50779327  0.90288992  0.84142122  1
  H  H607  1  0.93847085  0.75914749  0.84256842  1
