# generated using pymatgen
data_Zn4H24C42O19
_symmetry_space_group_name_H-M   'P 1'
_cell_length_a   17.64188050
_cell_length_b   17.68586321
_cell_length_c   17.51109807
_cell_angle_alpha   90.00000000
_cell_angle_beta   90.00000000
_cell_angle_gamma   90.00000000
_symmetry_Int_Tables_number   1
_chemical_formula_structural   Zn4H24C42O19
_chemical_formula_sum   'Zn4 H24 C42 O19'
_cell_volume   5463.67072120
_cell_formula_units_Z   1
loop_
 _symmetry_equiv_pos_site_id
 _symmetry_equiv_pos_as_xyz
  1  'x, y, z'
loop_
 _atom_site_type_symbol
 _atom_site_label
 _atom_site_symmetry_multiplicity
 _atom_site_fract_x
 _atom_site_fract_y
 _atom_site_fract_z
 _atom_site_occupancy
  C  C0  1  0.49992664  0.49493282  0.19348731  1
  C  C1  1  0.49158011  0.04153205  0.49663949  1
  Zn  Zn2  1  0.43707794  0.43226069  0.56422017  1
  O  O3  1  0.04815804  0.38309435  0.63387934  1
  C  C4  1  0.44232891  0.16747501  0.53009312  1
  C  C5  1  0.16021164  0.43980182  0.56879362  1
  C  C6  1  0.19120926  0.49006686  0.51644301  1
  C  C7  1  0.43407064  0.08901714  0.53214721  1
  O  O8  1  0.36928241  0.05678913  0.56335729  1
  C  C9  1  0.08289995  0.43262478  0.58530010  1
  H  H10  1  0.19563070  0.39769118  0.60265087  1
  H  H11  1  0.39920710  0.20446944  0.55611397  1
  O  O12  1  0.31860963  0.45643759  0.54771681  1
  O  O13  1  0.48997501  0.43835059  0.67699406  1
  O  O14  1  0.45483734  0.31679982  0.52125980  1
  C  C15  1  0.27638268  0.49720312  0.50590052  1
  H  H16  1  0.38986850  0.00460488  0.57298601  1
  C  C17  1  0.04211735  0.48339783  0.53473478  1
  H  H18  1  0.48687320  0.37620662  0.94074778  1
  C  C19  1  0.49287315  0.43361124  0.91329788  1
  H  H20  1  0.39827790  0.56039618  0.19083215  1
  O  O21  1  0.38274158  0.58861070  0.04916999  1
  C  C22  1  0.44401771  0.53547205  0.15677310  1
  C  C23  1  0.44019100  0.54519217  0.07694001  1
  C  C24  1  0.49598921  0.50070298  0.03599617  1
  C  C25  1  0.45022065  0.92345017  0.43498232  1
  Zn  Zn26  1  0.42699161  0.55295923  0.43412849  1
  O  O27  1  0.45895637  0.53318637  0.31728427  1
  C  C28  1  0.44882510  0.84587887  0.43157134  1
  O  O29  1  0.44388380  0.67431604  0.44476555  1
  H  H30  1  0.41600447  0.81732889  0.38917706  1
  H  H31  1  0.02146153  0.55898547  0.44394731  1
  H  H32  1  0.17143961  0.56924104  0.42327173  1
  H  H33  1  0.41934315  0.95789187  0.39091125  1
  C  C34  1  0.06837082  0.52798807  0.47462842  1
  C  C35  1  0.14614940  0.53217553  0.46485723  1
  C  C36  1  0.49436110  0.95589620  0.49198715  1
  C  C37  1  0.48907827  0.71235511  0.48382385  1
  C  C38  1  0.48918754  0.79733510  0.48133401  1
  O  O39  1  0.30717540  0.53505273  0.45364020  1
  H  H40  1  0.00170463  0.58419231  0.61590282  1
  H  H41  1  0.38928949  0.57773119  0.99296175  1
  C  C42  1  0.49865379  0.50536911  0.95018816  1
  C  C43  1  0.55491879  0.46191286  0.07293450  1
  C  C44  1  0.55995056  0.46108991  0.15177735  1
  H  H45  1  0.60180680  0.44050256  0.04022853  1
  H  H46  1  0.60952807  0.43693707  0.18183707  1
  Zn  Zn47  1  0.57520065  0.43872047  0.42712346  1
  H  H48  1  0.61147559  0.18364734  0.43352896  1
  C  C49  1  0.83632619  0.43797386  0.48652427  1
  O  O50  1  0.55575240  0.45433701  0.30887900  1
  H  H51  1  0.80561775  0.39823587  0.44416482  1
  H  H52  1  0.59769936  0.04075455  0.42877726  1
  C  C53  1  0.91475334  0.43558411  0.48962626  1
  H  H54  1  0.94945049  0.39608514  0.45187053  1
  O  O55  1  0.68764163  0.47260965  0.45371393  1
  C  C56  1  0.56173611  0.15198909  0.46041490  1
  C  C57  1  0.55597293  0.07408139  0.46479796  1
  O  O58  1  0.56536782  0.31307942  0.45999241  1
  C  C59  1  0.50728640  0.19807680  0.49441901  1
  C  C60  1  0.50882653  0.28345888  0.49275959  1
  C  C61  1  0.50520428  0.49267260  0.27990705  1
  O  O62  1  0.50270869  0.49755986  0.49482958  1
  C  C63  1  0.79700522  0.49708972  0.52357858  1
  C  C64  1  0.50963684  0.49957903  0.71125986  1
  H  H65  1  0.99442348  0.40569382  0.63817200  1
  C  C66  1  0.95546762  0.48466426  0.53777367  1
  H  H67  1  0.50314476  0.37531802  0.80183668  1
  C  C68  1  0.50239001  0.42880586  0.83559146  1
  C  C69  1  0.51118287  0.49748579  0.79461026  1
  H  H70  1  0.50615765  0.62588145  0.00094727  1
  Zn  Zn71  1  0.55571644  0.56708073  0.55712933  1
  C  C72  1  0.53797396  0.91044546  0.54174580  1
  O  O73  1  0.52932328  0.67835146  0.53198872  1
  H  H74  1  0.56842790  0.79628642  0.57534490  1
  H  H75  1  0.80495268  0.58528978  0.60890704  1
  O  O76  1  0.94725258  0.58447619  0.63654050  1
  C  C77  1  0.91589209  0.53568007  0.58683272  1
  O  O78  1  0.53046229  0.55804621  0.67459226  1
  O  O79  1  0.67963745  0.56199466  0.54181005  1
  C  C80  1  0.53597570  0.83059109  0.53431347  1
  O  O81  1  0.57974204  0.94318841  0.60119912  1
  C  C82  1  0.83584314  0.54011240  0.57739598  1
  C  C83  1  0.71782557  0.51456805  0.50278569  1
  H  H84  1  0.57453487  0.99502584  0.58836650  1
  H  H85  1  0.53502009  0.61703339  0.79869032  1
  C  C86  1  0.52143187  0.56667120  0.83270896  1
  O  O87  1  0.52021708  0.64460246  0.95070554  1
  C  C88  1  0.51116718  0.57554102  0.91067008  1
