# generated using pymatgen
data_CuH6C6(NO)2
_symmetry_space_group_name_H-M   'P 1'
_cell_length_a   17.70131910
_cell_length_b   20.85809459
_cell_length_c   17.09197913
_cell_angle_alpha   90.00000000
_cell_angle_beta   90.00000000
_cell_angle_gamma   90.00000000
_symmetry_Int_Tables_number   1
_chemical_formula_structural   CuH6C6(NO)2
_chemical_formula_sum   'Cu32 H192 C192 N64 O64'
_cell_volume   6310.62854648
_cell_formula_units_Z   32
loop_
 _symmetry_equiv_pos_site_id
 _symmetry_equiv_pos_as_xyz
  1  'x, y, z'
loop_
 _atom_site_type_symbol
 _atom_site_label
 _atom_site_symmetry_multiplicity
 _atom_site_fract_x
 _atom_site_fract_y
 _atom_site_fract_z
 _atom_site_occupancy
  H  H0  1  0.18097243  0.08010828  0.47158568  1
  C  C1  1  0.10286736  0.14543575  0.05085894  1
  N  N2  1  0.33434754  0.10239512  0.38363906  1
  Cu  Cu3  1  0.21166906  0.02915842  0.20696716  1
  H  H4  1  0.09560911  0.14894537  0.37142909  1
  Cu  Cu5  1  0.49341001  0.08692651  0.31773049  1
  N  N6  1  0.04211954  0.02835171  0.15528931  1
  C  C7  1  0.14983750  0.20371455  0.07747218  1
  C  C8  1  0.26731600  0.15281135  0.14446875  1
  O  O9  1  0.32876882  0.16114515  0.17496843  1
  H  H10  1  0.08238195  0.20617933  0.29520411  1
  H  H11  1  0.17152692  0.15895360  0.30322394  1
  C  C12  1  0.22132464  0.20626477  0.12033044  1
  N  N13  1  0.10600956  0.06828285  0.21364500  1
  H  H14  1  0.42467629  0.11109525  0.19923686  1
  N  N15  1  0.42034069  0.07907877  0.24334647  1
  H  H16  1  0.27685286  0.00721880  0.03888415  1
  H  H17  1  0.45419700  0.10734048  0.07328339  1
  O  O18  1  0.24056995  0.09359055  0.13417459  1
  C  C19  1  0.07036662  0.11251201  0.25148075  1
  N  N20  1  0.42648537  0.09044669  0.40647186  1
  C  C21  1  0.43048176  0.09583546  0.48163280  1
  N  N22  1  0.42980652  0.00777964  0.19403379  1
  C  C23  1  0.41336665  0.06534589  0.06841846  1
  Cu  Cu24  1  0.31844943  0.08626080  0.27868658  1
  C  C25  1  0.10702752  0.15974906  0.30901626  1
  H  H26  1  0.35774392  0.08682427  0.08070004  1
  C  C27  1  0.29937852  0.10909862  0.44605497  1
  H  H28  1  0.01758526  0.11286945  0.46132102  1
  H  H29  1  0.05128416  0.15820146  0.02205187  1
  H  H30  1  0.20175356  0.16168157  0.46920029  1
  C  C31  1  0.22340705  0.11706531  0.49293409  1
  H  H32  1  0.13513985  0.11219368  0.00779576  1
  H  H33  1  0.08446325  0.11775153  0.10101517  1
  C  C34  1  0.42869280  0.00488575  0.12754737  1
  O  O35  1  0.23634288  0.11803272  0.57217127  1
  O  O36  1  0.02706447  0.24069844  0.55874547  1
  C  C37  1  0.35936015  0.21543633  0.93876485  1
  C  C38  1  0.32395924  0.10764800  0.58846241  1
  C  C39  1  0.41002428  0.12124962  0.84142398  1
  C  C40  1  0.27784509  0.23006991  0.92608697  1
  C  C41  1  0.38518153  0.16410920  0.88805391  1
  O  O42  1  0.23085197  0.20316463  0.89153049  1
  O  O43  1  0.35008062  0.10408620  0.65169483  1
  C  C44  1  0.35268344  0.10583892  0.50894149  1
  H  H45  1  0.41036400  0.13440149  0.77790957  1
  O  O46  1  0.40836939  0.04166866  0.99662816  1
  H  H47  1  0.40651222  0.07031966  0.85392873  1
  H  H48  1  0.48087427  0.08396775  0.59311288  1
  H  H49  1  0.49406267  0.23485821  0.64190869  1
  C  C50  1  0.26355301  0.42096353  0.48945716  1
  Cu  Cu51  1  0.17401835  0.39590766  0.11908505  1
  H  H52  1  0.30629343  0.47425672  0.16387651  1
  N  N53  1  0.13658267  0.41204189  0.02053480  1
  C  C54  1  0.39968853  0.41718768  0.19961810  1
  H  H55  1  0.44006332  0.42745893  0.39915759  1
  Cu  Cu56  1  0.02046696  0.40091691  0.12540845  1
  C  C57  1  0.04996742  0.45018134  0.25791093  1
  O  O58  1  0.37856658  0.35357046  0.36260831  1
  C  C59  1  0.13408249  0.36318384  0.30716175  1
  N  N60  1  0.44155918  0.44228917  0.14131688  1
  H  H61  1  0.18663632  0.27573827  0.39011523  1
  H  H62  1  0.37124633  0.44490246  0.31882154  1
  C  C63  1  0.37845067  0.41887435  0.37782125  1
  C  C64  1  0.31746259  0.29392033  0.17971578  1
  N  N65  1  0.07084699  0.46748834  0.02602622  1
  C  C66  1  0.18249613  0.30191307  0.33091673  1
  N  N67  1  0.10551974  0.31234131  0.31523820  1
  C  C68  1  0.45599344  0.37505998  0.23519614  1
  N  N69  1  0.19190155  0.30825796  0.11579191  1
  C  C70  1  0.18835589  0.45325760  0.22580267  1
  O  O71  1  0.47004755  0.28328486  0.31596808  1
  O  O72  1  0.26392107  0.41777038  0.23916853  1
  C  C73  1  0.44232825  0.33471020  0.30509966  1
  C  C74  1  0.32216681  0.43635631  0.20494299  1
  C  C75  1  0.12522949  0.42472315  0.26286944  1
  C  C76  1  0.32264924  0.44540245  0.44040527  1
  H  H77  1  0.42321615  0.34401052  0.03696413  1
  H  H78  1  0.20991879  0.27906895  0.27775717  1
  N  N79  1  0.12590204  0.26178247  0.07145373  1
  Cu  Cu80  1  0.04835936  0.30878265  0.02278225  1
  H  H81  1  0.31430479  0.32234538  0.45848671  1
  C  C82  1  0.24357940  0.27129953  0.13810128  1
  Cu  Cu83  1  0.00281493  0.26436485  0.15325823  1
  C  C84  1  0.44558035  0.29496772  0.02466541  1
  H  H85  1  0.42671481  0.44716707  0.08402732  1
  H  H86  1  0.34325499  0.32925735  0.14090186  1
  H  H87  1  0.35735457  0.25320098  0.18855871  1
  H  H88  1  0.22152410  0.27820587  0.00153049  1
  H  H89  1  0.27535758  0.41083438  0.01345713  1
  H  H90  1  0.31073032  0.31554691  0.23995376  1
  O  O91  1  0.27048833  0.30446908  0.48988713  1
  N  N92  1  0.03024498  0.48920636  0.20400793  1
  H  H93  1  0.02618026  0.41243390  0.37738908  1
  H  H94  1  0.12451586  0.45701967  0.58278809  1
  C  C95  1  0.14085887  0.38884641  0.94862866  1
  O  O96  1  0.00652459  0.44875110  0.58622458  1
  C  C97  1  0.07603635  0.41641658  0.90956110  1
  H  H98  1  0.21455017  0.36293098  0.86437700  1
  C  C99  1  0.05774107  0.40350820  0.82983593  1
  O  O100  1  0.08727337  0.35470029  0.79428120  1
  Cu  Cu101  1  0.10182384  0.30469592  0.55315975  1
  C  C102  1  0.36814167  0.42743360  0.61056079  1
  C  C103  1  0.19491011  0.34062204  0.91775484  1
  H  H104  1  0.28193021  0.43451300  0.91400172  1
  H  H105  1  0.34516258  0.37706247  0.60390725  1
  C  C106  1  0.30368485  0.44345733  0.97399494  1
  C  C107  1  0.23866081  0.36007190  0.51526363  1
  C  C108  1  0.03815082  0.46250391  0.95803730  1
  O  O109  1  0.18351290  0.35519396  0.56224686  1
  H  H110  1  0.16054060  0.49852239  0.79514172  1
  C  C111  1  0.47236881  0.44824504  0.68828036  1
  H  H112  1  0.34235884  0.45219767  0.55987962  1
  H  H113  1  0.19623372  0.47954661  0.64671342  1
  O  O114  1  0.25928209  0.29720043  0.96690842  1
  C  C115  1  0.45504960  0.42601835  0.60965559  1
  O  O116  1  0.39681794  0.48813994  0.79729052  1
  H  H117  1  0.48790499  0.43248067  0.94549146  1
  Cu  Cu118  1  0.05421950  0.31654591  0.70212835  1
  O  O119  1  0.38171327  0.44422090  0.97797653  1
  H  H120  1  0.16681201  0.29563724  0.89231512  1
  C  C121  1  0.40425787  0.46556828  0.73266770  1
  O  O122  1  0.33846369  0.45590343  0.67898298  1
  H  H123  1  0.45069517  0.30094273  0.84034681  1
  O  O124  1  0.03149056  0.36468745  0.51096919  1
  C  C125  1  0.22971379  0.47878108  0.52292688  1
  H  H126  1  0.44232994  0.38727260  0.81413056  1
  C  C127  1  0.48145794  0.34541215  0.81959585  1
  C  C128  1  0.17395173  0.49241183  0.58724051  1
  O  O129  1  0.00676564  0.43510522  0.79538224  1
  Cu  Cu130  1  0.00557195  0.43678395  0.68806949  1
  H  H131  1  0.49413509  0.32162524  0.63710947  1
  C  C132  1  0.40731333  0.25621239  0.98441766  1
  Cu  Cu133  1  0.18714501  0.68722398  0.05058946  1
  Cu  Cu134  1  0.19696424  0.59675823  0.33595728  1
  N  N135  1  0.09615421  0.61294606  0.36738104  1
  C  C136  1  0.04739207  0.59373681  0.41427991  1
  N  N137  1  0.22376482  0.68836360  0.34856668  1
  H  H138  1  0.10311275  0.51018384  0.45674435  1
  H  H139  1  0.46599355  0.58434698  0.29072589  1
  H  H140  1  0.30566732  0.53219003  0.28932743  1
  C  C141  1  0.34284355  0.68346088  0.28252588  1
  C  C142  1  0.34583119  0.61608784  0.26661860  1
  H  H143  1  0.00230867  0.50842473  0.47938274  1
  N  N144  1  0.29019542  0.58052669  0.28641697  1
  N  N145  1  0.09451764  0.65374868  0.06365044  1
  C  C146  1  0.32934707  0.61441442  0.03872723  1
  Cu  Cu147  1  0.13171738  0.69249940  0.23093120  1
  N  N148  1  0.06404145  0.65598233  0.15910181  1
  O  O149  1  0.45782984  0.72098171  0.22451799  1
  H  H150  1  0.43911710  0.65227681  0.08386872  1
  N  N151  1  0.25697583  0.61891134  0.04095749  1
  N  N152  1  0.06236746  0.67208254  0.31465288  1
  H  H153  1  0.41249607  0.53834252  0.22197638  1
  H  H154  1  0.24862575  0.70244820  0.16838749  1
  C  C155  1  0.27849432  0.71425981  0.31954252  1
  N  N156  1  0.19908573  0.72085799  0.15047910  1
  H  H157  1  0.44940526  0.61490460  0.19507637  1
  Cu  Cu158  1  0.07231091  0.52275829  0.10976977  1
  C  C159  1  0.42425517  0.58766586  0.24350761  1
  C  C160  1  0.38674119  0.66898066  0.05643383  1
  C  C161  1  0.05448574  0.54004333  0.47514413  1
  Cu  Cu162  1  0.14442774  0.71946622  0.40814682  1
  N  N163  1  0.32170614  0.50964450  0.44681058  1
  C  C164  1  0.39949628  0.72906645  0.25808746  1
  O  O165  1  0.18870409  0.50076922  0.18641611  1
  Cu  Cu166  1  0.26381730  0.70546244  0.48600583  1
  H  H167  1  0.36237677  0.70719755  0.09702365  1
  C  C168  1  0.34436988  0.55036227  0.01487529  1
  N  N169  1  0.26575632  0.53021678  0.49557983  1
  H  H170  1  0.16329558  0.53959927  0.00596705  1
  N  N171  1  0.22015785  0.54700478  0.00984936  1
  C  C172  1  0.03919141  0.63410406  0.02175954  1
  H  H173  1  0.06033319  0.65720341  0.51587365  1
  C  C174  1  0.08262049  0.68656238  0.56290009  1
  C  C175  1  0.05474253  0.63688658  0.93421689  1
  C  C176  1  0.27812823  0.51110888  0.99689539  1
  H  H177  1  0.03787121  0.69187460  0.60755138  1
  N  N178  1  0.22091390  0.65737968  0.57277319  1
  C  C179  1  0.19447868  0.57777719  0.71315372  1
  O  O180  1  0.18487802  0.73723620  0.91639418  1
  H  H181  1  0.29749922  0.54483099  0.72610284  1
  H  H182  1  0.14900862  0.54541074  0.58734551  1
  H  H183  1  0.07737508  0.68643731  0.91773071  1
  H  H184  1  0.00500610  0.62870416  0.89410572  1
  O  O185  1  0.22451473  0.67220068  0.82287520  1
  H  H186  1  0.45151078  0.63447178  0.63308807  1
  C  C187  1  0.37470447  0.65147302  0.77971102  1
  C  C188  1  0.13969595  0.61268818  0.67074190  1
  N  N189  1  0.43659394  0.72526939  0.87282526  1
  C  C190  1  0.14915905  0.54954124  0.78620645  1
  N  N191  1  0.26232891  0.57068595  0.69410855  1
  H  H192  1  0.36982677  0.67362194  0.71918315  1
  C  C193  1  0.06529171  0.60588524  0.71070843  1
  Cu  Cu194  1  0.31229734  0.61453573  0.60978690  1
  O  O195  1  0.00344090  0.62228480  0.69202902  1
  O  O196  1  0.07437674  0.56290518  0.78399544  1
  H  H197  1  0.17706492  0.57038211  0.84083320  1
  N  N198  1  0.41939686  0.59404921  0.62851005  1
  C  C199  1  0.37341649  0.70112235  0.84600182  1
  C  C200  1  0.15518189  0.65470119  0.60198273  1
  H  H201  1  0.32392538  0.61898238  0.78380940  1
  H  H202  1  0.43585438  0.56869623  0.58064564  1
  H  H203  1  0.43988831  0.56457626  0.67427705  1
  H  H204  1  0.42554982  0.62069456  0.77731395  1
  Cu  Cu205  1  0.24087924  0.69235913  0.71421448  1
  H  H206  1  0.06994142  0.55980774  0.53264259  1
  H  H207  1  0.10404680  0.60632176  0.91370415  1
  H  H208  1  0.09291529  0.73771139  0.53703867  1
  C  C209  1  0.23483204  0.71304242  0.87990410  1
  C  C210  1  0.31579314  0.72783762  0.89433807  1
  O  O211  1  0.34386328  0.72698115  0.55689291  1
  C  C212  1  0.41170017  0.51384952  0.99371220  1
  O  O213  1  0.47517099  0.53028231  0.98570960  1
  H  H214  1  0.40701070  0.69143432  0.99871632  1
  H  H215  1  0.49530556  0.72206601  0.53182279  1
  C  C216  1  0.30078275  0.81659399  0.00677312  1
  C  C217  1  0.23791390  0.89200097  0.45635171  1
  H  H218  1  0.07433598  0.81055199  0.26150006  1
  C  C219  1  0.43965209  0.94649874  0.07256692  1
  H  H220  1  0.32812454  0.95400027  0.10897404  1
  H  H221  1  0.03959472  0.88098353  0.30150533  1
  H  H222  1  0.07463758  0.75130524  0.04971331  1
  N  N223  1  0.16562576  0.80881736  0.40007373  1
  H  H224  1  0.12085389  0.88082030  0.23463715  1
  C  C225  1  0.06808698  0.79497038  0.08628963  1
  N  N226  1  0.19959834  0.80050102  0.13788758  1
  C  C227  1  0.27546935  0.96520022  0.07643153  1
  C  C228  1  0.45609130  0.83388491  0.13664005  1
  H  H229  1  0.30607199  0.80350797  0.38290117  1
  C  C230  1  0.15304021  0.89165747  0.07432330  1
  H  H231  1  0.26388004  0.82093468  0.29692132  1
  C  C232  1  0.44723572  0.88757162  0.09827073  1
  C  C233  1  0.09497515  0.85719287  0.28473704  1
  C  C234  1  0.20438272  0.90474901  0.38347584  1
  C  C235  1  0.14945233  0.82524730  0.10828548  1
  H  H236  1  0.43832103  0.88097855  0.49115581  1
  C  C237  1  0.21736000  0.92809178  0.07814916  1
  C  C238  1  0.15203613  0.85620257  0.35436325  1
  C  C239  1  0.30573213  0.78719540  0.32196123  1
  H  H240  1  0.04397333  0.78314760  0.14461662  1
  H  H241  1  0.46725931  0.83383076  0.20137588  1
  O  O242  1  0.37485712  0.79239925  0.28661161  1
  H  H243  1  0.06703067  0.98996366  0.12600041  1
  O  O244  1  0.03471402  0.83816356  0.03895245  1
  C  C245  1  0.22256414  0.95914518  0.33522105  1
  O  O246  1  0.18468352  0.97007129  0.26986010  1
  C  C247  1  0.08236052  0.90149288  0.02852383  1
  N  N248  1  0.22175692  0.83340892  0.47408917  1
  H  H249  1  0.44729771  0.78503979  0.10896873  1
  H  H250  1  0.32052436  0.81391886  0.06940613  1
  O  O251  1  0.26385630  0.99910460  0.36185687  1
  H  H252  1  0.24063975  0.80105799  0.00361574  1
  H  H253  1  0.49388109  0.80130092  0.49714146  1
  H  H254  1  0.33205157  0.95960572  0.47061974  1
  C  C255  1  0.39620587  0.79006705  0.65709729  1
  O  O256  1  0.26943415  0.76291758  0.65289426  1
  C  C257  1  0.34655895  0.77354386  0.94987502  1
  N  N258  1  0.46132295  0.83735016  0.75423507  1
  C  C259  1  0.47494388  0.79438920  0.62392848  1
  H  H260  1  0.27499225  0.83629070  0.74729033  1
  H  H261  1  0.25116563  0.97212776  0.53550976  1
  C  C262  1  0.39339574  0.82505075  0.72988318  1
  C  C263  1  0.28898044  0.93521925  0.50843249  1
  C  C264  1  0.32422018  0.83657310  0.78530540  1
  H  H265  1  0.32836393  0.88193590  0.81933597  1
  H  H266  1  0.22875266  0.81483564  0.52874560  1
  H  H267  1  0.31182517  0.79225159  0.81989718  1
  N  N268  1  0.41890795  0.77646692  0.94439347  1
  C  C269  1  0.33664448  0.75972920  0.62074424  1
  O  O270  1  0.42234918  0.94211683  0.93049773  1
  H  H271  1  0.31784271  0.90909459  0.55868513  1
  H  H272  1  0.47492200  0.89762288  0.58856258  1
  C  C273  1  0.42411232  0.96723327  0.99099550  1
  C  C274  1  0.47055366  0.91811349  0.52581452  1
  H  H275  1  0.43471581  0.96027761  0.53440599  1
  O  O276  1  0.05915156  0.94468776  0.99050855  1
  H  H277  1  0.30321616  0.86838452  0.98989139  1
  C  C278  1  0.69104774  0.13657720  0.10639564  1
  C  C279  1  0.67715937  0.10215671  0.17911224  1
  C  C280  1  0.96148770  0.13276927  0.44347302  1
  C  C281  1  0.59826289  0.11824034  0.19052130  1
  H  H282  1  0.50601221  0.17142328  0.12759422  1
  H  H283  1  0.86770499  0.08319021  0.12047300  1
  H  H284  1  0.77764409  0.16606969  0.45027408  1
  H  H285  1  0.58745239  0.06542329  0.01511036  1
  C  C286  1  0.66910555  0.22092114  0.47138731  1
  C  C287  1  0.82328098  0.21980963  0.21357936  1
  H  H288  1  0.73189972  0.19518373  0.36514061  1
  C  C289  1  0.70626606  0.06437354  0.24163873  1
  C  C290  1  0.78633176  0.03600972  0.24622433  1
  C  C291  1  0.91118670  0.04535841  0.11096259  1
  H  H292  1  0.93124251  0.09838830  0.40351916  1
  O  O293  1  0.88092473  0.16484238  0.19798564  1
  C  C294  1  0.71927942  0.17541987  0.42466096  1
  N  N295  1  0.57604325  0.09576534  0.25578506  1
  N  N296  1  0.65345683  0.05442309  0.29203295  1
  C  C297  1  0.94585760  0.16407655  0.23455221  1
  H  H298  1  0.77295631  0.20614837  0.17330760  1
  O  O299  1  0.96598128  0.20751696  0.28796223  1
  C  C300  1  0.99401759  0.11256737  0.21505824  1
  O  O301  1  0.74449735  0.14106603  0.06640224  1
  O  O302  1  0.61519394  0.17085443  0.08249451  1
  H  H303  1  0.97271808  0.17834728  0.40497375  1
  H  H304  1  0.68947638  0.12910487  0.41002376  1
  C  C305  1  0.97916452  0.06209279  0.16193551  1
  C  C306  1  0.56612790  0.15709470  0.13078672  1
  H  H307  1  0.81037885  0.21741730  0.27776059  1
  H  H308  1  0.65271780  0.03134188  0.34434255  1
  H  H309  1  0.76884626  0.02066139  0.42743167  1
  H  H310  1  0.82807460  0.06793611  0.22235738  1
  H  H311  1  0.92873853  0.24366551  0.27670588  1
  H  H312  1  0.80695926  0.02253974  0.30376082  1
  H  H313  1  0.91728058  0.24384638  0.47197033  1
  H  H314  1  0.92966989  0.04450455  0.04546064  1
  C  C315  1  0.86746463  0.15277930  0.64265112  1
  H  H316  1  0.54477344  0.10081360  0.92867751  1
  Cu  Cu317  1  0.64256657  0.17807166  0.74986189  1
  O  O318  1  0.75273905  0.05109873  0.73824641  1
  N  N319  1  0.82507885  0.11172844  0.60243970  1
  H  H320  1  0.96349448  0.16251107  0.92114105  1
  N  N321  1  0.85228685  0.10361584  0.52867968  1
  C  C322  1  0.63194818  0.21615553  0.54467822  1
  Cu  Cu323  1  0.72982653  0.05434470  0.62875951  1
  O  O324  1  0.68620310  0.11605886  0.81268879  1
  O  O325  1  0.66436107  0.10849090  0.57595843  1
  C  C326  1  0.70728975  0.05983603  0.79395998  1
  C  C327  1  0.63539492  0.16065321  0.59544541  1
  O  O328  1  0.59421218  0.16375369  0.65777956  1
  H  H329  1  0.78825208  0.19442571  0.72914378  1
  C  C330  1  0.62359292  0.01754783  0.90425149  1
  C  C331  1  0.59927198  0.07630331  0.95189536  1
  N  N332  1  0.86139792  0.13944791  0.95461982  1
  H  H333  1  0.88577559  0.20215109  0.75743675  1
  H  H334  1  0.88520936  0.24037326  0.85844338  1
  C  C335  1  0.98137621  0.22256161  0.61144240  1
  C  C336  1  0.50201904  0.09027018  0.53126303  1
  H  H337  1  0.83676964  0.12715337  0.76534934  1
  C  C338  1  0.84557787  0.16865496  0.72705470  1
  C  C339  1  0.92371850  0.17488297  0.58961967  1
  H  H340  1  0.64789389  0.11241658  0.95280514  1
  N  N341  1  0.91780309  0.17569462  0.96212759  1
  C  C342  1  0.91254866  0.14090447  0.51802916  1
  C  C343  1  0.67470024  0.00738700  0.83758910  1
  O  O344  1  0.98280852  0.24690836  0.67891231  1
  O  O345  1  0.69966630  0.24689811  0.89241898  1
  H  H346  1  0.53581318  0.13528943  0.51680551  1
  H  H347  1  0.81804635  0.15344256  0.99255293  1
  H  H348  1  0.54330940  0.04881518  0.51631166  1
  N  N349  1  0.65529085  0.27794592  0.44194275  1
  O  O350  1  0.72389123  0.42386751  0.21595728  1
  C  C351  1  0.80810040  0.45978818  0.19684535  1
  H  H352  1  0.66664275  0.27377693  0.07865427  1
  C  C353  1  0.84667459  0.28665248  0.19115196  1
  C  C354  1  0.73379349  0.36162303  0.21645134  1
  H  H355  1  0.67288233  0.30276749  0.39624879  1
  O  O356  1  0.54003225  0.46173373  0.36780260  1
  H  H357  1  0.93677754  0.31230231  0.40533843  1
  C  C358  1  0.85873629  0.40296807  0.18129364  1
  H  H359  1  0.60803917  0.37175058  0.30615138  1
  C  C360  1  0.81028967  0.34786320  0.19981736  1
  H  H361  1  0.89303344  0.43060197  0.04992896  1
  H  H362  1  0.84587713  0.26862045  0.40465385  1
  C  C363  1  0.53436947  0.37357079  0.20910036  1
  N  N364  1  0.91403384  0.30477060  0.17414988  1
  H  H365  1  0.79644864  0.41041663  0.06809128  1
  N  N366  1  0.92509901  0.38492387  0.16149507  1
  H  H367  1  0.81168047  0.48072306  0.25451310  1
  H  H368  1  0.72553719  0.34266207  0.06411152  1
  Cu  Cu369  1  0.59738971  0.45304774  0.08301497  1
  C  C370  1  0.69176250  0.30650587  0.03596425  1
  N  N371  1  0.53157964  0.41104057  0.14692765  1
  C  C372  1  0.59978035  0.34300942  0.25275408  1
  O  O373  1  0.67861381  0.32192963  0.22861984  1
  Cu  Cu374  1  0.92089390  0.25099475  0.03803602  1
  H  H375  1  0.58252082  0.29356612  0.27458553  1
  N  N376  1  0.59848074  0.39152459  0.00248292  1
  H  H377  1  0.95697085  0.38411865  0.30368827  1
  H  H378  1  0.81143680  0.49974550  0.15411264  1
  C  C379  1  0.89319816  0.28810524  0.44421524  1
  H  H380  1  0.50550406  0.28411098  0.04361944  1
  C  C381  1  0.83849382  0.42110520  0.02122127  1
  H  H382  1  0.95343330  0.46864731  0.33086269  1
  C  C383  1  0.99440312  0.42608076  0.32211800  1
  C  C384  1  0.68188972  0.48789488  0.45402429  1
  C  C385  1  0.58665959  0.49301425  0.33482481  1
  H  H386  1  0.80936700  0.48198943  0.47022640  1
  N  N387  1  0.65125530  0.44449724  0.49600205  1
  Cu  Cu388  1  0.55867045  0.39560965  0.48107173  1
  C  C389  1  0.85309161  0.36433626  0.96723408  1
  H  H390  1  0.56936944  0.27826307  0.68799071  1
  C  C391  1  0.79332692  0.44351052  0.88294626  1
  O  O392  1  0.61879348  0.25235924  0.79667852  1
  H  H393  1  0.83064829  0.37141395  0.71308939  1
  C  C394  1  0.54107402  0.35753479  0.88251170  1
  C  C395  1  0.82845816  0.38152047  0.88720007  1
  H  H396  1  0.89181169  0.48189510  0.69160266  1
  H  H397  1  0.76314680  0.30887516  0.73497617  1
  H  H398  1  0.74250636  0.31957744  0.50976399  1
  N  N399  1  0.79534128  0.33696763  0.52141268  1
  H  H400  1  0.85687478  0.28769299  0.71602952  1
  C  C401  1  0.63533403  0.34151989  0.98391198  1
  H  H402  1  0.72964005  0.27780919  0.99160617  1
  C  C403  1  0.85197501  0.42599737  0.59227363  1
  C  C404  1  0.53181329  0.27714426  0.63638044  1
  C  C405  1  0.60414221  0.32274974  0.90890714  1
  O  O406  1  0.76710766  0.47068412  0.82907252  1
  N  N407  1  0.51803068  0.41922212  0.57638855  1
  C  C408  1  0.64490058  0.27251940  0.86399554  1
  C  C409  1  0.98299234  0.39949676  0.54550373  1
  O  O410  1  0.79393045  0.47067448  0.96869364  1
  C  C411  1  0.83787637  0.33095337  0.83400220  1
  C  C412  1  0.82100959  0.32489530  0.74503504  1
  C  C413  1  0.55420416  0.45042576  0.70365305  1
  N  N414  1  0.53108280  0.40443687  0.93522919  1
  N  N415  1  0.78566120  0.40208099  0.58255152  1
  C  C416  1  0.58423842  0.27163369  0.56237756  1
  Cu  Cu417  1  0.68194955  0.41950174  0.60174405  1
  N  N418  1  0.58608104  0.43016512  0.64259664  1
  H  H419  1  0.61791051  0.43654619  0.81295214  1
  N  N420  1  0.88102724  0.30944530  0.96795533  1
  C  C421  1  0.90392576  0.38806818  0.54421988  1
  N  N422  1  0.86932330  0.28450116  0.87052815  1
  H  H423  1  0.91673089  0.48496565  0.93905897  1
  C  C424  1  0.59905331  0.47666591  0.77429652  1
  C  C425  1  0.86650794  0.33613150  0.50572775  1
  N  N426  1  0.59738164  0.31293427  0.50876149  1
  H  H427  1  0.51021054  0.33910919  0.76168930  1
  C  C428  1  0.86416890  0.49007527  0.63205802  1
  C  C429  1  0.60051340  0.70387396  0.05406516  1
  C  C430  1  0.60401675  0.73300034  0.13441776  1
  O  O431  1  0.86500372  0.59329339  0.13203521  1
  C  C432  1  0.92681549  0.61678851  0.20173421  1
  C  C433  1  0.71268579  0.54634185  0.34005143  1
  H  H434  1  0.82510043  0.68272874  0.47224340  1
  C  C435  1  0.99716894  0.63255370  0.15520443  1
  C  C436  1  0.90377569  0.59612983  0.06652653  1
  O  O437  1  0.68049273  0.54349054  0.03389133  1
  O  O438  1  0.65652084  0.59589041  0.14037157  1
  H  H439  1  0.82494065  0.58445280  0.32571162  1
  H  H440  1  0.74329925  0.61452559  0.26120077  1
  H  H441  1  0.65656325  0.71987830  0.16706443  1
  C  C442  1  0.91924249  0.64084257  0.45429351  1
  H  H443  1  0.90293461  0.65801138  0.23327004  1
  O  O444  1  0.57099097  0.51800366  0.26887017  1
  C  C445  1  0.62668460  0.64496177  0.01692264  1
  C  C446  1  0.65063861  0.59287844  0.06822444  1
  C  C447  1  0.65852616  0.51231794  0.37789343  1
  H  H448  1  0.94009739  0.58152542  0.24788866  1
  H  H449  1  0.88351904  0.72630652  0.32309075  1
  H  H450  1  0.55036317  0.71795652  0.16660684  1
  C  C451  1  0.98563549  0.64077622  0.40625559  1
  C  C452  1  0.76643024  0.57889041  0.30413759  1
  C  C453  1  0.94486043  0.73901101  0.30866105  1
  C  C454  1  0.97835311  0.61845852  0.07396200  1
  O  O455  1  0.85856008  0.69409260  0.43077170  1
  H  H456  1  0.78267160  0.55864279  0.44546176  1
  Cu  Cu457  1  0.64524973  0.51946454  0.19795825  1
  H  H458  1  0.97425799  0.50296266  0.20850974  1
  H  H459  1  0.77467604  0.71083353  0.05744916  1
  H  H460  1  0.94864266  0.74873268  0.24431882  1
  N  N461  1  0.56341169  0.73677930  0.00165241  1
  C  C462  1  0.99587164  0.68428738  0.34081170  1
  O  O463  1  0.87253959  0.58442367  0.00024179  1
  Cu  Cu464  1  0.77365951  0.55520695  0.00586591  1
  C  C465  1  0.76101996  0.51625398  0.47680136  1
  N  N466  1  0.75943565  0.59407916  0.70036341  1
  H  H467  1  0.62525101  0.60783197  0.81359723  1
  O  O468  1  0.90126318  0.60777021  0.50758830  1
  C  C469  1  0.65071297  0.59922064  0.87446834  1
  C  C470  1  0.70185247  0.68622845  0.73396813  1
  C  C471  1  0.62314221  0.64845384  0.93452663  1
  H  H472  1  0.71409493  0.60239739  0.86604735  1
  H  H473  1  0.90382954  0.52301541  0.59955902  1
  H  H474  1  0.64354463  0.54787863  0.89076824  1
  H  H475  1  0.64975527  0.50659994  0.76122454  1
  C  C476  1  0.97386462  0.50787418  0.93238036  1
  H  H477  1  0.86821131  0.61004392  0.80290408  1
  C  C478  1  0.84510468  0.65533647  0.78326572  1
  H  H479  1  0.80842620  0.51473559  0.64788713  1
  C  C480  1  0.65008229  0.64529470  0.69414418  1
  N  N481  1  0.68779165  0.59221433  0.67420754  1
  C  C482  1  0.76873666  0.64746057  0.74255069  1
  N  N483  1  0.58013902  0.69784709  0.92014472  1
  H  H484  1  0.84397533  0.69321307  0.83139228  1
  C  C485  1  0.56689277  0.65723110  0.67331613  1
  H  H486  1  0.88470344  0.67672857  0.74123492  1
  H  H487  1  0.56165571  0.65807900  0.60725323  1
  H  H488  1  0.97178618  0.55245990  0.97329419  1
  H  H489  1  0.54406274  0.70152847  0.69950243  1
  H  H490  1  0.76478436  0.52443117  0.54248547  1
  H  H491  1  0.52632309  0.61893946  0.69104897  1
  H  H492  1  0.78769848  0.74469733  0.95687096  1
  Cu  Cu493  1  0.53411374  0.73270397  0.83550906  1
  H  H494  1  0.97995498  0.52645593  0.87303419  1
  H  H495  1  0.56475732  0.51030195  0.80854735  1
  H  H496  1  0.65938429  0.98616674  0.16730941  1
  H  H497  1  0.85472122  0.76646081  0.03653521  1
  N  N498  1  0.68701225  0.82978750  0.00097760  1
  Cu  Cu499  1  0.55648943  0.92510899  0.00363941  1
  C  C500  1  0.73944911  0.80826076  0.04505203  1
  C  C501  1  0.79044780  0.83440171  0.17787606  1
  H  H502  1  0.57749204  0.93645753  0.18588174  1
  N  N503  1  0.64004470  0.88509457  0.05127566  1
  C  C504  1  0.73317511  0.84558229  0.11555776  1
  N  N505  1  0.55541492  0.93067741  0.41053178  1
  O  O506  1  0.79051186  0.88427688  0.23912019  1
  C  C507  1  0.64123799  0.93702996  0.18155885  1
  C  C508  1  0.67184579  0.89008626  0.11909402  1
  C  C509  1  0.54657185  0.92773918  0.48720678  1
  H  H510  1  0.66414864  0.92333567  0.24114835  1
  H  H511  1  0.83176695  0.87104659  0.27061979  1
  H  H512  1  0.95681861  0.78638704  0.33846382  1
  C  C513  1  0.67402715  0.95129469  0.45009464  1
  H  H514  1  0.78872727  0.95472944  0.49624087  1
  H  H515  1  0.59770250  0.78767290  0.13332014  1
  N  N516  1  0.62822382  0.94380860  0.39181360  1
  H  H517  1  0.78369946  0.94064546  0.39258425  1
  C  C518  1  0.79304635  0.75313263  0.02137365  1
  O  O519  1  0.83225084  0.78973755  0.17826029  1
  H  H520  1  0.88810892  0.99634706  0.12140367  1
  H  H521  1  0.79122995  0.98801394  0.21709021  1
  C  C522  1  0.75669417  0.96894151  0.44078393  1
  C  C523  1  0.76467961  0.91661705  0.76917274  1
  N  N524  1  0.66246514  0.90675687  0.87042632  1
  O  O525  1  0.59492027  0.93797915  0.65215476  1
  H  H526  1  0.81793371  0.94700325  0.77601917  1
  Cu  Cu527  1  0.51875876  0.86201384  0.84185580  1
  C  C528  1  0.63765918  0.94850938  0.59700971  1
  Cu  Cu529  1  0.65438811  0.81826317  0.89824991  1
  N  N530  1  0.51746415  0.82023246  0.67770731  1
  Cu  Cu531  1  0.61901354  0.86032432  0.70542294  1
  N  N532  1  0.60686986  0.95904518  0.92043172  1
  Cu  Cu533  1  0.50898353  0.81408428  0.99119025  1
  O  O534  1  0.70500742  0.97064838  0.60848277  1
  H  H535  1  0.77984874  0.86856220  0.78936598  1
  C  C536  1  0.69805386  0.94290114  0.82305519  1
  H  H537  1  0.75392949  0.91116010  0.70585197  1
  O  O538  1  0.63477713  0.78668974  0.76103050  1
  O  O539  1  0.74784407  0.77060193  0.80673286  1
  C  C540  1  0.51377016  0.77220328  0.54771161  1
  C  C541  1  0.62257470  0.93979378  0.51396569  1
  C  C542  1  0.69541165  0.75038170  0.77080162  1
  H  H543  1  0.57584529  0.77872197  0.54968110  1
