# generated using pymatgen
data_CuH6C6(NO)2
_symmetry_space_group_name_H-M   'P 1'
_cell_length_a   21.61507529
_cell_length_b   25.64001445
_cell_length_c   10.94022749
_cell_angle_alpha   90.00000000
_cell_angle_beta   90.00000000
_cell_angle_gamma   90.00000000
_symmetry_Int_Tables_number   1
_chemical_formula_structural   CuH6C6(NO)2
_chemical_formula_sum   'Cu32 H192 C192 N64 O64'
_cell_volume   6063.19269565
_cell_formula_units_Z   32
loop_
 _symmetry_equiv_pos_site_id
 _symmetry_equiv_pos_as_xyz
  1  'x, y, z'
loop_
 _atom_site_type_symbol
 _atom_site_label
 _atom_site_symmetry_multiplicity
 _atom_site_fract_x
 _atom_site_fract_y
 _atom_site_fract_z
 _atom_site_occupancy
  H  H0  1  0.04085876  0.05064655  0.38777278  1
  C  C1  1  0.37235488  0.10612205  0.46815496  1
  N  N2  1  0.26194461  0.17684720  0.04264069  1
  H  H3  1  0.08304632  0.10412645  0.31553949  1
  H  H4  1  0.25949437  0.03022498  0.35347706  1
  O  O5  1  0.45851061  0.16546691  0.36133227  1
  Cu  Cu6  1  0.26284271  0.05588562  0.09761611  1
  C  C7  1  0.08725376  0.07132415  0.38247699  1
  C  C8  1  0.21009278  0.20409029  0.05549460  1
  C  C9  1  0.20753238  0.15392869  0.36199899  1
  Cu  Cu10  1  0.14441289  0.06275439  0.08477260  1
  H  H11  1  0.09804819  0.08377259  0.47986617  1
  C  C12  1  0.22875079  0.16325843  0.24292256  1
  O  O13  1  0.45418182  0.08420941  0.23567801  1
  H  H14  1  0.03370387  0.19337164  0.05869653  1
  N  N15  1  0.27826953  0.15215249  0.18317366  1
  C  C16  1  0.13465500  0.03124875  0.34082336  1
  Cu  Cu17  1  0.34970941  0.11598419  0.20810133  1
  O  O18  1  0.15753161  0.17596775  0.37754224  1
  C  C19  1  0.13510502  0.20835671  0.25231821  1
  H  H20  1  0.22448940  0.12298530  0.41935383  1
  N  N21  1  0.29526421  0.04343688  0.40402406  1
  Cu  Cu22  1  0.41487809  0.03194851  0.32900878  1
  C  C23  1  0.18606178  0.19374546  0.17282089  1
  N  N24  1  0.34199127  0.09567528  0.36909612  1
  N  N25  1  0.15538365  0.02538442  0.23472975  1
  C  C26  1  0.42304281  0.14584475  0.48439026  1
  N  N27  1  0.33875159  0.01827138  0.12385502  1
  C  C28  1  0.38794799  0.00918404  0.06455936  1
  O  O29  1  0.09194289  0.23389724  0.23002217  1
  C  C30  1  0.48220513  0.12238644  0.26739552  1
  N  N31  1  0.49668049  0.01625693  0.39032608  1
  C  C32  1  0.14518111  0.14106709  0.76158565  1
  N  N33  1  0.16687125  0.10836575  0.84238488  1
  H  H34  1  0.45798791  0.13342493  0.54715524  1
  H  H35  1  0.10322002  0.06020098  0.74673862  1
  C  C36  1  0.08959671  0.16360300  0.81861457  1
  H  H37  1  0.16775492  0.19298517  0.60603346  1
  C  C38  1  0.07363280  0.14135757  0.93500613  1
  O  O39  1  0.10423607  0.01771657  0.59245223  1
  C  C40  1  0.04723434  0.20352861  0.77489862  1
  H  H41  1  0.04120366  0.01116468  0.72245485  1
  H  H42  1  0.40671034  0.18237905  0.52367961  1
  Cu  Cu43  1  0.22587886  0.05520437  0.87546016  1
  H  H44  1  0.22652297  0.01001949  0.64508998  1
  H  H45  1  0.40103300  0.01634397  0.87025602  1
  N  N46  1  0.49356194  0.15995043  0.72024624  1
  O  O47  1  0.31703599  0.03142292  0.73591089  1
  C  C48  1  0.27982236  0.00712402  0.63756512  1
  O  O49  1  0.04481374  0.22404683  0.67865308  1
  H  H50  1  0.23060045  0.15312669  0.65304893  1
  C  C51  1  0.35939992  0.06975473  0.69316691  1
  C  C52  1  0.18087204  0.15312402  0.64245071  1
  H  H53  1  0.44965409  0.14421069  0.72520896  1
  O  O54  1  0.38784444  0.09878941  0.75462416  1
  N  N55  1  0.11332895  0.10664168  0.96023347  1
  C  C56  1  0.34661616  0.07252393  0.56162459  1
  H  H57  1  0.49642060  0.06330728  0.66920465  1
  H  H58  1  0.16768757  0.12470926  0.56931290  1
  H  H59  1  0.49749710  0.19820964  0.75091110  1
  C  C60  1  0.42472205  0.02733500  0.95565487  1
  C  C61  1  0.01684192  0.17458794  0.96590537  1
  C  C62  1  0.09420209  0.01659276  0.71831703  1
  C  C63  1  0.30125093  0.03591852  0.52239535  1
  H  H64  1  0.20941688  0.22951540  0.86580553  1
  H  H65  1  0.13404285  0.21394566  0.92490388  1
  H  H66  1  0.29409923  0.17855543  0.97522673  1
  C  C67  1  0.17918035  0.23379876  0.95007658  1
  H  H68  1  0.43062140  0.07132097  0.96228865  1
  H  H69  1  0.26184419  0.49033172  0.15886959  1
  H  H70  1  0.44090056  0.41227365  0.02635832  1
  H  H71  1  0.42110106  0.45226982  0.15843039  1
  O  O72  1  0.46693195  0.44914098  0.40595034  1
  Cu  Cu73  1  0.04884582  0.36649294  0.11378962  1
  O  O74  1  0.02501928  0.35916199  0.27294779  1
  O  O75  1  0.06988233  0.43631093  0.13599909  1
  O  O76  1  0.17070864  0.43599089  0.17168919  1
  C  C77  1  0.44827116  0.45075763  0.06967097  1
  C  C78  1  0.16536885  0.45841143  0.46353802  1
  C  C79  1  0.12590451  0.45879063  0.13705890  1
  H  H80  1  0.19272373  0.44195612  0.38501531  1
  H  H81  1  0.12862812  0.43170415  0.48803826  1
  H  H82  1  0.49934769  0.45014970  0.08679498  1
  O  O83  1  0.06951356  0.37384723  0.95676917  1
  O  O84  1  0.34158566  0.42499817  0.73731734  1
  C  C85  1  0.37975149  0.44025272  0.80590008  1
  H  H86  1  0.02493141  0.37862438  0.67006658  1
  C  C87  1  0.06040346  0.47344914  0.80093269  1
  H  H88  1  0.42750646  0.40809051  0.61835982  1
  H  H89  1  0.16927949  0.27675995  0.96267651  1
  C  C90  1  0.12535393  0.47355295  0.85604902  1
  C  C91  1  0.38213152  0.48625580  0.88612434  1
  C  C92  1  0.46808238  0.39704040  0.67193903  1
  C  C93  1  0.03762435  0.35585023  0.58938989  1
  C  C94  1  0.02047727  0.38446952  0.88686946  1
  C  C95  1  0.01231632  0.43263692  0.81414265  1
  H  H96  1  0.46093316  0.43422373  0.84144787  1
  O  O97  1  0.43971857  0.39956946  0.81028792  1
  H  H98  1  0.13469461  0.42819847  0.86923509  1
  C  C99  1  0.43031956  0.49513699  0.98055937  1
  H  H100  1  0.19899831  0.46657325  0.54442760  1
  H  H101  1  0.16189935  0.48980223  0.79359678  1
  H  H102  1  0.47683050  0.35363948  0.66370993  1
  H  H103  1  0.07477159  0.32761612  0.61703980  1
  H  H104  1  0.38346947  0.49375235  0.51554629  1
  H  H105  1  0.05656400  0.38276157  0.51997344  1
  H  H106  1  0.12795683  0.49407689  0.94452039  1
  Cu  Cu107  1  0.01036338  0.48464534  0.50306868  1
  C  C108  1  0.25407438  0.51981493  0.08847184  1
  C  C109  1  0.43671344  0.59600621  0.45243347  1
  C  C110  1  0.39647405  0.55886988  0.39541720  1
  N  N111  1  0.10078191  0.69666610  0.08331803  1
  H  H112  1  0.35463435  0.63881917  0.31392720  1
  N  N113  1  0.06848430  0.58644224  0.42453982  1
  H  H114  1  0.28823445  0.55163911  0.11021247  1
  C  C115  1  0.16073771  0.56283150  0.38442486  1
  N  N116  1  0.36091285  0.68628330  0.09022424  1
  N  N117  1  0.18315361  0.69826333  0.07808892  1
  H  H118  1  0.09204210  0.69072234  0.35832310  1
  C  C119  1  0.12918735  0.66227027  0.33318070  1
  H  H120  1  0.17272830  0.67978621  0.36669645  1
  H  H121  1  0.13441947  0.65954561  0.23225552  1
  N  N122  1  0.17468200  0.58584532  0.04021773  1
  C  C123  1  0.13851181  0.51276760  0.43195569  1
  C  C124  1  0.22385961  0.57226339  0.34664256  1
  C  C125  1  0.19719196  0.73823543  0.14354489  1
  N  N126  1  0.39475731  0.54698413  0.28111361  1
  C  C127  1  0.08198416  0.73860550  0.13605120  1
  C  C128  1  0.00651612  0.53503397  0.10778713  1
  C  C129  1  0.11615095  0.60675321  0.38250235  1
  H  H130  1  0.49005607  0.52554830  0.31623013  1
  C  C131  1  0.07513779  0.54586834  0.08628587  1
  O  O132  1  0.27409273  0.57756118  0.31590173  1
  H  H133  1  0.36081509  0.52213164  0.25895298  1
  Cu  Cu134  1  0.43350857  0.58962646  0.16521280  1
  H  H135  1  0.38480819  0.69484715  0.39545089  1
  H  H136  1  0.30616986  0.69012853  0.35246611  1
  C  C137  1  0.36944494  0.70750445  0.19993527  1
  C  C138  1  0.35250347  0.68018483  0.32335274  1
  N  N139  1  0.09508640  0.58960088  0.04581301  1
  C  C140  1  0.18703756  0.54068174  0.08797688  1
  N  N141  1  0.07986082  0.52203224  0.44582800  1
  H  H142  1  0.00368057  0.51495564  0.20513371  1
  C  C143  1  0.47972024  0.62856209  0.38744571  1
  H  H144  1  0.48163301  0.74540870  0.27438249  1
  C  C145  1  0.12939151  0.51566322  0.11442792  1
  N  N146  1  0.48577963  0.62629966  0.27212551  1
  H  H147  1  0.47911126  0.70381421  0.47782739  1
  H  H148  1  0.31382392  0.52590161  0.49398260  1
  H  H149  1  0.06312905  0.71129513  0.58746627  1
  O  O150  1  0.45861920  0.61933363  0.65984206  1
  Cu  Cu151  1  0.22100376  0.64490611  0.99641147  1
  C  C152  1  0.01786960  0.65443721  0.77332269  1
  C  C153  1  0.23316080  0.71514525  0.77911884  1
  Cu  Cu154  1  0.44639561  0.59506724  0.89617675  1
  O  O155  1  0.29730019  0.73094923  0.81737470  1
  C  C156  1  0.36400820  0.53410022  0.50793075  1
  Cu  Cu157  1  0.06643628  0.56403763  0.63583063  1
  C  C158  1  0.08165200  0.67977714  0.77779533  1
  H  H159  1  0.12084520  0.65491409  0.82022050  1
  O  O160  1  0.38317971  0.55860527  0.61700552  1
  H  H161  1  0.45983660  0.68833452  0.79581037  1
  N  N162  1  0.31959146  0.56760905  0.88371566  1
  C  C163  1  0.10218587  0.69841330  0.64531782  1
  O  O164  1  0.22285617  0.66963713  0.77563027  1
  H  H165  1  0.13124619  0.66966114  0.59736575  1
  H  H166  1  0.07949242  0.71093306  0.84011246  1
  H  H167  1  0.28575054  0.57459934  0.71477142  1
  C  C168  1  0.43304956  0.59440973  0.58520868  1
  N  N169  1  0.01318689  0.61176575  0.71107216  1
  C  C170  1  0.27886151  0.54910007  0.79532139  1
  H  H171  1  0.23790146  0.55764839  0.84988883  1
  C  C172  1  0.33634043  0.52118694  0.85824054  1
  H  H173  1  0.37787692  0.73583187  0.90077844  1
  N  N174  1  0.03867062  0.50624314  0.72574943  1
  N  N175  1  0.46550169  0.53761902  0.98711700  1
  H  H176  1  0.48297416  0.74903631  0.87079116  1
  Cu  Cu177  1  0.05728475  0.64847806  0.99312936  1
  C  C178  1  0.13575083  0.74999358  0.66825360  1
  Cu  Cu179  1  0.33897098  0.62958413  0.99015241  1
  H  H180  1  0.26929274  0.50480314  0.99951980  1
  N  N181  1  0.37480049  0.74002513  0.99536896  1
  O  O182  1  0.38788129  0.79128596  0.38865572  1
  H  H183  1  0.19656689  0.86802101  0.41359641  1
  H  H184  1  0.09221483  0.93892027  0.21165989  1
  O  O185  1  0.01214384  0.90737971  0.40534650  1
  H  H186  1  0.24785254  0.91414421  0.48938763  1
  H  H187  1  0.45548576  0.90090354  0.35191197  1
  N  N188  1  0.34358118  0.97248195  0.23816531  1
  H  H189  1  0.37002427  0.88534658  0.36501157  1
  C  C190  1  0.38325145  0.76169852  0.18477757  1
  C  C191  1  0.19439667  0.94963578  0.34272131  1
  C  C192  1  0.24755708  0.76461233  0.18895377  1
  C  C193  1  0.39269944  0.94667015  0.22525036  1
  O  O194  1  0.42078031  0.84929261  0.23748905  1
  H  H195  1  0.02867951  0.98479311  0.21442508  1
  C  C196  1  0.40829141  0.89442210  0.29932790  1
  O  O197  1  0.13124323  0.82556458  0.34454481  1
  C  C198  1  0.39844651  0.79714331  0.28543266  1
  H  H199  1  0.01656494  0.77935287  0.26262834  1
  H  H200  1  0.26896403  0.89103198  0.33750568  1
  C  C201  1  0.22909371  0.90283465  0.39822075  1
  Cu  Cu202  1  0.24758862  0.95833030  0.10083680  1
  N  N203  1  0.19827931  0.96984574  0.23599637  1
  O  O204  1  0.23028332  0.80211531  0.25479802  1
  C  C205  1  0.48336231  0.95831897  0.06589035  1
  C  C206  1  0.15714419  0.79957907  0.26973641  1
  C  C207  1  0.42735473  0.96958525  0.12322620  1
  C  C208  1  0.15752389  0.98618870  0.40839219  1
  H  H209  1  0.07022927  0.96778638  0.06594155  1
  C  C210  1  0.01758612  0.76248113  0.16877676  1
  C  C211  1  0.38379054  0.78116696  0.06127310  1
  C  C212  1  0.13769983  0.76034409  0.18152450  1
  C  C213  1  0.04887405  0.95217224  0.15563414  1
  H  H214  1  0.00535226  0.79516155  0.10777636  1
  C  C215  1  0.14705449  0.86036990  0.02882746  1
  H  H216  1  0.17765165  0.85763932  0.11516699  1
  H  H217  1  0.10197097  0.85168079  0.06543384  1
  H  H218  1  0.43616505  0.85136658  0.03177584  1
  H  H219  1  0.35076328  0.85897388  0.03122027  1
  C  C220  1  0.39023605  0.83395814  0.00153889  1
  C  C221  1  0.00300900  0.90744893  0.14520018  1
  H  H222  1  0.48928012  0.78837086  0.14042364  1
  H  H223  1  0.29567573  0.75564486  0.16694686  1
  H  H224  1  0.29017505  0.96466851  0.63193616  1
  H  H225  1  0.15946260  0.87565553  0.65883280  1
  H  H226  1  0.39013619  0.82929510  0.89876315  1
  C  C227  1  0.12750868  0.98411353  0.81748289  1
  C  C228  1  0.11271562  0.93299232  0.86045096  1
  O  O229  1  0.14988772  0.93619039  0.57810865  1
  O  O230  1  0.02344887  0.92668399  0.73897509  1
  H  H231  1  0.27480168  0.82750884  0.89702864  1
  C  C232  1  0.06161588  0.90397370  0.80975570  1
  Cu  Cu233  1  0.00623090  0.80761957  0.76750594  1
  H  H234  1  0.30157839  0.85436694  0.75346358  1
  N  N235  1  0.11789185  0.79460685  0.62319051  1
  N  N236  1  0.17187526  0.83730638  0.68121312  1
  C  C237  1  0.15050274  0.91243332  0.95550167  1
  C  C238  1  0.25968290  0.84548348  0.80735343  1
  C  C239  1  0.21281556  0.81074204  0.74177551  1
  Cu  Cu240  1  0.05313013  0.82578964  0.54576451  1
  Cu  Cu241  1  0.01932668  0.91935102  0.57010535  1
  C  C242  1  0.45633325  0.96576648  0.56386922  1
  H  H243  1  0.23810856  0.88478373  0.82187321  1
  C  C244  1  0.13922111  0.97744665  0.53483805  1
  O  O245  1  0.05539668  0.85686419  0.84647982  1
  N  N246  1  0.17526541  0.99881498  0.88080101  1
  H  H247  1  0.41122180  0.96556327  0.51116282  1
  N  N248  1  0.19033431  0.94709508  0.98083365  1
  H  H249  1  0.46978752  0.92328136  0.57885938  1
  H  H250  1  0.28907691  0.76655058  0.81985838  1
  H  H251  1  0.15886940  0.82777264  0.96519326  1
  C  C252  1  0.19576185  0.75699892  0.73203185  1
  O  O253  1  0.48808189  0.99443233  0.95107997  1
  H  H254  1  0.44829967  0.98817855  0.64995213  1
  C  C255  1  0.54283973  0.13662600  0.23848702  1
  C  C256  1  0.60785411  0.00580772  0.40397696  1
  H  H257  1  0.55531588  0.07514309  0.32922886  1
  H  H258  1  0.90636181  0.04757611  0.11100043  1
  H  H259  1  0.98092063  0.17507454  0.36163157  1
  N  N260  1  0.55327974  0.07052799  0.08865766  1
  C  C261  1  0.96196151  0.18536083  0.45382198  1
  H  H262  1  0.65568922  0.20538386  0.22072901  1
  O  O263  1  0.71545887  0.24095173  0.11908967  1
  N  N264  1  0.93065121  0.06127972  0.29352563  1
  C  C265  1  0.80411285  0.15666883  0.32964558  1
  C  C266  1  0.89432211  0.03372434  0.20507584  1
  H  H267  1  0.76097106  0.08026671  0.12808618  1
  C  C268  1  0.57943994  0.10758862  0.15103961  1
  H  H269  1  0.88123615  0.20073794  0.12200016  1
  C  C270  1  0.86299619  0.13370676  0.37212554  1
  H  H271  1  0.67280217  0.11368008  0.22765605  1
  C  C272  1  0.52235094  0.20116248  0.38705983  1
  H  H273  1  0.66219349  0.15526884  0.09972894  1
  H  H274  1  0.75650983  0.21615487  0.34441705  1
  Cu  Cu275  1  0.73833700  0.07980264  0.44906927  1
  H  H276  1  0.80346024  0.03615647  0.02354541  1
  O  O277  1  0.77208513  0.13824336  0.25278859  1
  C  C278  1  0.64927077  0.11567637  0.13911286  1
  C  C279  1  0.57076132  0.17968367  0.30554693  1
  H  H280  1  0.84778847  0.01687080  0.39865317  1
  C  C281  1  0.89114975  0.09078312  0.31827915  1
  C  C282  1  0.76974344  0.04032794  0.10038438  1
  C  C283  1  0.55579441  0.03097649  0.32983763  1
  N  N284  1  0.62546288  0.20223623  0.29760040  1
  H  H285  1  0.66804714  0.08813948  0.07575117  1
  C  C286  1  0.73851810  0.21271179  0.04625744  1
  H  H287  1  0.50817231  0.06357302  0.09899559  1
  O  O288  1  0.78676008  0.20616729  0.39767679  1
  H  H289  1  0.53287319  0.20029018  0.48618986  1
  C  C290  1  0.89829534  0.15783363  0.47385974  1
  C  C291  1  0.71446168  0.00534654  0.08413584  1
  O  O292  1  0.81467498  0.01659776  0.20415315  1
  H  H293  1  0.55328012  0.01722311  0.23592458  1
  H  H294  1  0.93090811  0.22687027  0.00349441  1
  C  C295  1  0.88175220  0.22268731  0.03366341  1
  H  H296  1  0.50437343  0.24038541  0.36295953  1
  H  H297  1  0.63369491  0.23509463  0.34807963  1
  H  H298  1  0.95847146  0.22895306  0.45810454  1
  N  N299  1  0.73511988  0.00650658  0.82235405  1
  O  O300  1  0.64767853  0.09770475  0.84424798  1
  O  O301  1  0.99815943  0.20895159  0.87596697  1
  C  C302  1  0.54497850  0.13721716  0.67229081  1
  C  C303  1  0.59767516  0.22296635  0.68613241  1
  C  C304  1  0.77251201  0.18285353  0.96240806  1
  Cu  Cu305  1  0.80077978  0.12222826  0.62307121  1
  H  H306  1  0.73133600  0.03102023  0.89881968  1
  N  N307  1  0.85264002  0.17451925  0.83358405  1
  N  N308  1  0.76312871  0.03225581  0.56780193  1
  Cu  Cu309  1  0.91873549  0.17886976  0.72318437  1
  H  H310  1  0.72556636  0.19301055  0.69132377  1
  N  N311  1  0.79076079  0.14546078  0.78448958  1
  C  C312  1  0.69680136  0.19389728  0.60677621  1
  Cu  Cu313  1  0.69893424  0.04877390  0.68138946  1
  N  N314  1  0.87884048  0.15409684  0.58251072  1
  Cu  Cu315  1  0.59479918  0.02837559  0.97246679  1
  C  C316  1  0.53760454  0.08102228  0.63291023  1
  C  C317  1  0.67819589  0.13634931  0.85677376  1
  C  C318  1  0.83927695  0.19198914  0.94325938  1
  N  N319  1  0.67009545  0.10616968  0.53828787  1
  C  C320  1  0.59712051  0.16798165  0.65483966  1
  Cu  Cu321  1  0.82730059  0.23902674  0.60521615  1
  C  C322  1  0.65464175  0.14873665  0.59773208  1
  C  C323  1  0.74558257  0.15081974  0.86328901  1
  H  H324  1  0.64175827  0.16932083  0.87748867  1
  H  H325  1  0.57897360  0.05819591  0.66852968  1
  H  H326  1  0.53531055  0.07733042  0.52891328  1
  C  C327  1  0.80933434  0.00060727  0.58057929  1
  O  O328  1  0.65976745  0.24726606  0.64627157  1
  H  H329  1  0.99652773  0.17183355  0.52850141  1
  H  H330  1  0.63876268  0.07682420  0.53072820  1
  H  H331  1  0.97496024  0.15046693  0.98738216  1
  H  H332  1  0.72363234  0.19842979  0.52110512  1
  H  H333  1  0.83932511  0.41172871  0.35962958  1
  H  H334  1  0.89586762  0.40641926  0.23978902  1
  O  O335  1  0.93271366  0.32487264  0.21005333  1
  C  C336  1  0.97374517  0.33735740  0.29495579  1
  H  H337  1  0.66646482  0.42144260  0.33174355  1
  C  C338  1  0.60083675  0.43026539  0.17820355  1
  C  C339  1  0.52177889  0.32310759  0.02159157  1
  C  C340  1  0.95193300  0.32214352  0.41305321  1
  C  C341  1  0.89247933  0.29548300  0.41312331  1
  O  O342  1  0.55826721  0.31986725  0.32778488  1
  H  H343  1  0.83381546  0.37562922  0.06904447  1
  H  H344  1  0.90634363  0.34252751  0.03837307  1
  H  H345  1  0.60753100  0.46588359  0.35786134  1
  H  H346  1  0.82861893  0.31474631  0.26256780  1
  N  N347  1  0.59778447  0.45609915  0.07610002  1
  C  C348  1  0.63909996  0.45405853  0.28534457  1
  H  H349  1  0.86117251  0.26264531  0.05305744  1
  C  C350  1  0.56791755  0.38006662  0.16140699  1
  C  C351  1  0.88792199  0.42211177  0.33291808  1
  C  C352  1  0.55086600  0.33385916  0.22721129  1
  O  O353  1  0.79321915  0.47938693  0.15177922  1
  C  C354  1  0.90409511  0.48167016  0.33920294  1
  C  C355  1  0.87373692  0.29507983  0.28121158  1
  H  H356  1  0.91960319  0.39936079  0.39177351  1
  H  H357  1  0.66827793  0.48689905  0.25562888  1
  O  O358  1  0.51601191  0.29637801  0.11877253  1
  C  C359  1  0.54775312  0.37320554  0.03506495  1
  C  C360  1  0.50843082  0.47563165  0.43740547  1
  H  H361  1  0.86924367  0.25523297  0.24699155  1
  O  O362  1  0.73759027  0.40374415  0.01825135  1
  C  C363  1  0.75288262  0.30368531  0.76899383  1
  C  C364  1  0.76955351  0.34069449  0.86952790  1
  H  H365  1  0.90124736  0.36886669  0.73827276  1
  H  H366  1  0.83289037  0.49537545  0.64727496  1
  N  N367  1  0.80300113  0.28588239  0.72616587  1
  C  C368  1  0.83393576  0.33819431  0.89368653  1
  N  N369  1  0.96434842  0.48886896  0.69858672  1
  H  H370  1  0.66270543  0.33223953  0.70015498  1
  H  H371  1  0.50308672  0.30914014  0.93240248  1
  H  H372  1  0.56168080  0.43107883  0.88044404  1
  H  H373  1  0.64371314  0.38967859  0.95703560  1
  Cu  Cu374  1  0.93617768  0.27889878  0.77209425  1
  C  C375  1  0.97906424  0.32630124  0.53562010  1
  H  H376  1  0.86566288  0.42203983  0.81165422  1
  H  H377  1  0.87308461  0.41997184  0.64905799  1
  N  N378  1  0.94528429  0.30095694  0.60849956  1
  C  C379  1  0.95720962  0.44306865  0.75080400  1
  N  N380  1  0.86093454  0.30942036  0.81125418  1
  N  N381  1  0.60587508  0.49460533  0.68942106  1
  C  C382  1  0.68737180  0.29635192  0.73110977  1
  C  C383  1  0.54097457  0.47196844  0.55234188  1
  C  C384  1  0.89624281  0.41130246  0.73570141  1
  N  N385  1  0.56207783  0.41494677  0.97167747  1
  O  O386  1  0.66664893  0.36648167  0.89538100  1
  H  H387  1  0.65725557  0.28422858  0.81327010  1
  C  C388  1  0.72614831  0.37226715  0.93782961  1
  C  C389  1  0.52356255  0.43273660  0.65106640  1
  O  O390  1  0.55760780  0.25043582  0.72308532  1
  N  N391  1  0.55754690  0.44527743  0.73823001  1
  C  C392  1  0.86821468  0.36699682  0.99599390  1
  H  H393  1  0.75857925  0.47369252  0.60253317  1
  Cu  Cu394  1  0.76180094  0.47579532  0.98673024  1
  H  H395  1  0.88659767  0.40550682  0.96010660  1
  N  N396  1  0.88311466  0.27763140  0.52063601  1
  O  O397  1  0.98079277  0.35332632  0.87290266  1
  O  O398  1  0.74614479  0.49758659  0.83592421  1
  O  O399  1  0.80516769  0.56687371  0.16528771  1
  O  O400  1  0.99654676  0.71259421  0.38755231  1
  H  H401  1  0.83186842  0.63814022  0.28894196  1
  N  N402  1  0.55807700  0.60858826  0.05035012  1
  H  H403  1  0.64907767  0.66721531  0.24749248  1
  H  H404  1  0.60226141  0.57542244  0.44297083  1
  C  C405  1  0.96122620  0.72960477  0.45898410  1
  H  H406  1  0.78828379  0.61051266  0.46223710  1
  H  H407  1  0.87480293  0.62115419  0.15464472  1
  C  C408  1  0.89733643  0.57238845  0.30561746  1
  N  N409  1  0.94280495  0.56696630  0.37856493  1
  H  H410  1  0.97847708  0.57107104  0.10923635  1
  O  O411  1  0.81960519  0.71504485  0.38290841  1
  O  O412  1  0.67092876  0.73930702  0.07931932  1
  C  C413  1  0.65158350  0.63678598  0.17112350  1
  Cu  Cu414  1  0.53459086  0.54153060  0.09649341  1
  C  C415  1  0.85299586  0.60691132  0.23758641  1
  H  H416  1  0.66200960  0.52550263  0.43907461  1
  O  O417  1  0.55812423  0.70262433  0.39307470  1
  C  C418  1  0.51620806  0.67250772  0.45497679  1
  C  C419  1  0.81979034  0.51810133  0.19406304  1
  O  O420  1  0.52858034  0.51921696  0.34103150  1
  C  C421  1  0.59821585  0.64410956  0.08152216  1
  N  N422  1  0.94931425  0.50437936  0.39677390  1
  H  H423  1  0.65839505  0.59411818  0.20531136  1
  C  C424  1  0.87287624  0.52016581  0.27369094  1
  H  H425  1  0.51726499  0.65276151  0.23889537  1
  H  H426  1  0.97940438  0.73097079  0.15867594  1
  H  H427  1  0.69598074  0.64977459  0.13169218  1
  Cu  Cu428  1  0.98985446  0.61131590  0.47094227  1
  C  C429  1  0.63051732  0.73350685  0.00542583  1
  H  H430  1  0.98985873  0.50773186  0.03424288  1
  H  H431  1  0.54434101  0.73757900  0.17600718  1
  C  C432  1  0.58719307  0.74432814  0.46633641  1
  H  H433  1  0.72146901  0.74849514  0.42913961  1
  Cu  Cu434  1  0.64947238  0.51036816  0.00712640  1
  C  C435  1  0.80861666  0.74126900  0.46854996  1
  H  H436  1  0.80769703  0.50510697  0.48610558  1
  Cu  Cu437  1  0.92392084  0.53971698  0.60099797  1
  H  H438  1  0.82182705  0.61031078  0.83315651  1
  C  C439  1  0.93346774  0.70688410  0.89180551  1
  C  C440  1  0.95589154  0.66602728  0.81044835  1
  C  C441  1  0.59207123  0.50435193  0.57466205  1
  C  C442  1  0.50057525  0.71297894  0.82466233  1
  C  C443  1  0.76541645  0.56065854  0.61376455  1
  N  N444  1  0.94068672  0.59814841  0.69822194  1
  C  C445  1  0.90979516  0.63091179  0.75958669  1
  H  H446  1  0.63920929  0.51077996  0.74657847  1
  H  H447  1  0.84932460  0.72321778  0.84560544  1
  C  C448  1  0.53695433  0.68060385  0.91931731  1
  O  O449  1  0.95990168  0.73756178  0.94889474  1
  H  H450  1  0.53392185  0.65581915  0.54538676  1
  O  O451  1  0.68889332  0.55996294  0.91237868  1
  H  H452  1  0.81213304  0.65923009  0.73168511  1
  H  H453  1  0.67080025  0.70004782  0.80295955  1
  O  O454  1  0.85830011  0.69445811  0.90660318  1
  C  C455  1  0.71902103  0.54306067  0.82621169  1
  C  C456  1  0.84505140  0.64597402  0.80438392  1
  H  H457  1  0.66385651  0.64583361  0.90384462  1
  C  C458  1  0.66285540  0.65622725  0.80576202  1
  H  H459  1  0.61316941  0.64971850  0.77340955  1
  C  C460  1  0.72967774  0.57491822  0.71734905  1
  C  C461  1  0.70354052  0.62559090  0.71431938  1
  H  H462  1  0.95238038  0.73351801  0.71065108  1
  H  H463  1  0.52527027  0.72495538  0.74386415  1
  H  H464  1  0.72468626  0.68506505  0.57818845  1
  O  O465  1  0.59784111  0.73677154  0.57009657  1
  N  N466  1  0.77121865  0.60254652  0.54485804  1
  N  N467  1  0.72614981  0.64902985  0.61805003  1
  C  C468  1  0.79300735  0.50631346  0.58234589  1
  N  N469  1  0.51258324  0.63619596  0.94416530  1
  C  C470  1  0.59050701  0.68642518  0.99869636  1
  C  C471  1  0.62935092  0.54586752  0.50061319  1
  H  H472  1  0.66102813  0.56659423  0.56411904  1
  C  C473  1  0.96307613  0.87848186  0.22570456  1
  C  C474  1  0.97046788  0.87778208  0.35543838  1
  N  N475  1  0.64780720  0.92980742  0.08084334  1
  H  H476  1  0.62173556  0.91700648  0.39120437  1
  H  H477  1  0.60473013  0.91534990  0.06118947  1
  C  C478  1  0.69722693  0.91314317  0.13490800  1
  N  N479  1  0.61299863  0.87770586  0.38345673  1
  N  N480  1  0.66592009  0.99310598  0.37878868  1
  O  O481  1  0.82559079  0.92080534  0.24544676  1
  C  C482  1  0.79856851  0.95305043  0.19364804  1
  C  C483  1  0.92162252  0.84380936  0.15892688  1
  N  N484  1  0.98309949  0.89684269  0.03069605  1
  N  N485  1  0.56039396  0.85452990  0.26890928  1
  H  H486  1  0.53607898  0.87807735  0.20797961  1
  H  H487  1  0.74784677  0.84091394  0.13950101  1
  H  H488  1  0.71460363  0.85381300  0.28122506  1
  C  C489  1  0.70637216  0.85716385  0.17877367  1
  H  H490  1  0.83502152  0.82241107  0.26620650  1
  O  O491  1  0.93637566  0.84817969  0.41522524  1
  H  H492  1  0.89716840  0.78203799  0.29162838  1
  C  C493  1  0.87331692  0.80412008  0.21469128  1
  O  O494  1  0.52359564  0.92926182  0.09585016  1
  C  C495  1  0.73889828  0.95713920  0.13632995  1
  H  H496  1  0.69095522  0.99468618  0.29283756  1
  H  H497  1  0.66492708  0.82958092  0.16126739  1
  H  H498  1  0.86289551  0.94951282  0.43964526  1
  C  C499  1  0.59294911  0.79421226  0.39831635  1
  H  H500  1  0.91613151  0.99490562  0.22424099  1
  C  C501  1  0.55687982  0.80504707  0.29166262  1
  N  N502  1  0.92740330  0.85212572  0.04078363  1
  H  H503  1  0.68995788  0.97552138  0.44868262  1
  C  C504  1  0.50991718  0.99081228  0.48818400  1
  H  H505  1  0.85533332  0.77616488  0.14203968  1
  C  C506  1  0.62507192  0.83738429  0.45074965  1
  C  C507  1  0.85786919  0.99044280  0.47900540  1
  N  N508  1  0.66034983  0.99608857  0.04934932  1
  C  C509  1  0.51403657  0.76941513  0.21643429  1
  C  C510  1  0.60643964  0.97009790  0.61618229  1
  H  H511  1  0.63822933  0.83035661  0.64899897  1
  N  N512  1  0.94237978  0.76784414  0.66520952  1
  Cu  Cu513  1  0.53508146  0.97268199  0.82077763  1
  Cu  Cu514  1  0.90331702  0.82334336  0.88646299  1
  N  N515  1  0.88082369  0.79043137  0.73982899  1
  O  O516  1  0.89699448  0.91381737  0.60832134  1
  H  H517  1  0.85810360  0.95784892  0.94768896  1
  C  C518  1  0.86587387  0.93142777  0.70009498  1
  O  O519  1  0.74211259  0.75445474  0.50259963  1
  C  C520  1  0.79378507  0.98207019  0.80709182  1
  C  C521  1  0.81791073  0.94131176  0.88912557  1
  O  O522  1  0.86830904  0.90880777  0.80778387  1
  C  C523  1  0.85305152  0.75667171  0.55885933  1
  Cu  Cu524  1  0.93482539  0.84885066  0.59140216  1
  C  C525  1  0.82270237  0.97389695  0.69659097  1
  O  O526  1  0.61971283  0.77915614  0.92419364  1
  H  H527  1  0.74952025  0.83027789  0.69835734  1
  O  O528  1  0.57420149  0.94491325  0.69456606  1
  C  C529  1  0.83425090  0.77965319  0.67035421  1
  H  H530  1  0.78063623  0.92321271  0.94678473  1
  C  C531  1  0.76875129  0.79073818  0.72208099  1
  H  H532  1  0.70709417  0.84072021  0.55816402  1
  O  O533  1  0.66347878  0.97963252  0.62504343  1
  H  H534  1  0.65409874  0.89226674  0.57951512  1
  H  H535  1  0.73315243  0.76113642  0.69363519  1
  C  C536  1  0.65830581  0.85007464  0.56893795  1
  H  H537  1  0.77044102  0.79476754  0.82394948  1
  H  H538  1  0.99389511  0.90847918  0.94576143  1
  H  H539  1  0.57616543  0.77185803  0.90420633  1
  H  H540  1  0.69912677  0.98112799  0.84678602  1
  C  C541  1  0.57597571  0.98830063  0.50966683  1
  C  C542  1  0.92129057  0.75029988  0.54905193  1
  H  H543  1  0.90252037  0.99976449  0.52097958  1
