# generated using pymatgen
data_Cu2H15C24NO8
_symmetry_space_group_name_H-M   'P 1'
_cell_length_a   22.90897167
_cell_length_b   15.77997151
_cell_length_c   13.61497362
_cell_angle_alpha   90.00000000
_cell_angle_beta   90.00000000
_cell_angle_gamma   90.00000000
_symmetry_Int_Tables_number   1
_chemical_formula_structural   Cu2H15C24NO8
_chemical_formula_sum   'Cu16 H120 C192 N8 O64'
_cell_volume   4921.85272244
_cell_formula_units_Z   8
loop_
 _symmetry_equiv_pos_site_id
 _symmetry_equiv_pos_as_xyz
  1  'x, y, z'
loop_
 _atom_site_type_symbol
 _atom_site_label
 _atom_site_symmetry_multiplicity
 _atom_site_fract_x
 _atom_site_fract_y
 _atom_site_fract_z
 _atom_site_occupancy
  C  C0  1  0.13374788  0.25618635  0.18287097  1
  C  C1  1  0.08395026  0.45509064  0.31046849  1
  C  C2  1  0.06101595  0.36953690  0.13089226  1
  H  H3  1  0.14003449  0.34095332  0.33824884  1
  C  C4  1  0.09813911  0.33742923  0.20340642  1
  C  C5  1  0.13050955  0.47485634  0.46776986  1
  C  C6  1  0.11208006  0.37508374  0.29148250  1
  C  C7  1  0.04086074  0.06032657  0.28963117  1
  O  O8  1  0.19583873  0.40860814  0.03574945  1
  O  O9  1  0.09920767  0.00758872  0.12934924  1
  C  C10  1  0.03304112  0.44346711  0.15742173  1
  O  O11  1  0.16077085  0.22398168  0.24507133  1
  O  O12  1  0.13966640  0.23435202  0.08984995  1
  C  C13  1  0.24334761  0.44912564  0.04440613  1
  H  H14  1  0.05704589  0.18409338  0.04802227  1
  H  H15  1  0.15938489  0.42446639  0.44100001  1
  H  H16  1  0.04780682  0.33480467  0.06587875  1
  H  H17  1  0.22295129  0.32952086  0.17646243  1
  C  C18  1  0.04097078  0.48781652  0.24556651  1
  H  H19  1  0.19495190  0.22196468  0.46739817  1
  H  H20  1  0.04206820  0.09892396  0.22305059  1
  N  N21  1  0.09620078  0.49960374  0.39751627  1
  O  O22  1  0.01957473  0.21340519  0.01893062  1
  H  H23  1  0.23946660  0.26911614  0.36670795  1
  C  C24  1  0.00137387  0.03307316  0.45204930  1
  C  C25  1  0.00507235  0.08744021  0.36395656  1
  Cu  Cu26  1  0.18826955  0.29712264  0.00750458  1
  H  H27  1  0.14530821  0.21309537  0.62008449  1
  O  O28  1  0.12485259  0.25071360  0.79865936  1
  C  C29  1  0.17576820  0.27279658  0.79542494  1
  C  C30  1  0.21404873  0.25308323  0.53122658  1
  C  C31  1  0.21101898  0.28134210  0.70562234  1
  H  H32  1  0.18763108  0.46926088  0.79672912  1
  C  C33  1  0.18596592  0.24821088  0.62013840  1
  C  C34  1  0.19554443  0.09376012  0.72893765  1
  H  H35  1  0.09467200  0.11733533  0.83309254  1
  O  O36  1  0.20362425  0.29246300  0.87668652  1
  H  H37  1  0.20407644  0.13371042  0.79363243  1
  H  H38  1  0.19326144  0.42464024  0.63055512  1
  C  C39  1  0.16319113  0.47492062  0.64557556  1
  C  C40  1  0.23566585  0.01628680  0.58652123  1
  C  C41  1  0.24077260  0.07490506  0.66558187  1
  C  C42  1  0.09210177  0.06562774  0.77836360  1
  C  C43  1  0.13999107  0.04385314  0.71739524  1
  C  C44  1  0.15923872  0.49966671  0.74067309  1
  H  H45  1  0.04808920  0.03614756  0.77404236  1
  O  O46  1  0.22730802  0.80043930  0.13304392  1
  C  C47  1  0.04757873  0.72399838  0.28958066  1
  C  C48  1  0.10726940  0.96073903  0.20495149  1
  C  C49  1  0.07017346  0.93576282  0.37507513  1
  C  C50  1  0.09656218  0.73524063  0.45126593  1
  H  H51  1  0.10113405  0.88066809  0.37476491  1
  C  C52  1  0.03399763  0.95312646  0.45105618  1
  H  H53  1  0.18006664  0.61808460  0.29353167  1
  H  H54  1  0.01118313  0.73261669  0.23855688  1
  O  O55  1  0.06589963  0.67935518  0.09712677  1
  O  O56  1  0.14934632  0.60994853  0.12890118  1
  C  C57  1  0.09744259  0.67567928  0.25470575  1
  H  H58  1  0.18353322  0.66967235  0.45956871  1
  C  C59  1  0.14688817  0.69051662  0.41257169  1
  C  C60  1  0.10335037  0.64896878  0.15587327  1
  H  H61  1  0.07113145  0.55183662  0.41920547  1
  Cu  Cu62  1  0.20087641  0.61079880  0.01165162  1
  C  C63  1  0.14428958  0.65829860  0.31912296  1
  C  C64  1  0.04654276  0.75166234  0.38434404  1
  O  O65  1  0.13527629  0.89218678  0.19853252  1
  C  C66  1  0.07637505  0.98500902  0.29104203  1
  H  H67  1  0.00760633  0.78033031  0.41413501  1
  Cu  Cu68  1  0.15371694  0.83452475  0.08904339  1
  H  H69  1  0.01662012  0.54275255  0.26397835  1
  Cu  Cu70  1  0.03934109  0.99093161  0.04000369  1
  H  H71  1  0.24313800  0.82152082  0.31851468  1
  C  C72  1  0.24810485  0.72309049  0.14983472  1
  C  C73  1  0.09748636  0.74596468  0.55502034  1
  O  O74  1  0.14440995  0.55335970  0.93284784  1
  C  C75  1  0.07396486  0.87067144  0.90563581  1
  C  C76  1  0.18396631  0.84092677  0.88863105  1
  C  C77  1  0.11724065  0.56048805  0.76714484  1
  O  O78  1  0.22397456  0.81065573  0.83896937  1
  O  O79  1  0.19434793  0.86831902  0.98094796  1
  N  N80  1  0.05638964  0.78567185  0.60643634  1
  C  C81  1  0.11923244  0.81089735  0.75823851  1
  H  H82  1  0.05183372  0.64913809  0.70575578  1
  H  H83  1  0.15871057  0.78926246  0.72466242  1
  O  O84  1  0.07733916  0.64652421  0.89518760  1
  Cu  Cu85  1  0.03445328  0.61302076  0.99914596  1
  C  C86  1  0.08935080  0.57737145  0.59484593  1
  H  H87  1  0.02376999  0.80024742  0.55970821  1
  C  C88  1  0.12532545  0.84027623  0.85435843  1
  H  H89  1  0.05974467  0.60744582  0.54234194  1
  C  C90  1  0.06467568  0.80589375  0.70531213  1
  H  H91  1  0.13345864  0.72898312  0.60323027  1
  C  C92  1  0.08463243  0.60127259  0.69013907  1
  H  H93  1  0.09249540  0.94576153  0.63049098  1
  C  C94  1  0.11138064  0.58764857  0.86763952  1
  C  C95  1  0.01764579  0.86233231  0.84926112  1
  C  C96  1  0.12691272  0.50931669  0.56683686  1
  C  C97  1  0.18226299  0.96942031  0.57982246  1
  H  H98  1  0.03604485  0.91425213  0.51538259  1
  C  C99  1  0.13233792  0.98015201  0.63940133  1
  C  C100  1  0.01141009  0.83191519  0.75255006  1
  H  H101  1  0.17467824  0.92278035  0.52047420  1
  O  O102  1  0.07650463  0.89403750  0.99092022  1
  H  H103  1  0.28096738  0.47653876  0.49050614  1
  C  C104  1  0.26632013  0.35884932  0.18685800  1
  C  C105  1  0.47998575  0.23734861  0.09492776  1
  C  C106  1  0.45178884  0.21861963  0.29133627  1
  C  C107  1  0.30225767  0.30444064  0.43911649  1
  O  O108  1  0.39831098  0.14713174  0.41237767  1
  N  N109  1  0.27830457  0.30018993  0.35374573  1
  C  C110  1  0.37465844  0.43982437  0.20485522  1
  C  C111  1  0.35863004  0.37766283  0.27073878  1
  C  C112  1  0.30111797  0.33953034  0.27093268  1
  H  H113  1  0.39232826  0.36013465  0.32078056  1
  H  H114  1  0.47652105  0.37463757  0.44249543  1
  C  C115  1  0.28423815  0.42380898  0.12441419  1
  C  C116  1  0.42928262  0.18261091  0.12255137  1
  C  C117  1  0.41480506  0.17948218  0.21840936  1
  H  H118  1  0.40758492  0.14549190  0.06210207  1
  H  H119  1  0.37599315  0.42125271  0.41811743  1
  C  C120  1  0.43476490  0.47565073  0.20851547  1
  C  C121  1  0.33604504  0.46900785  0.13369794  1
  O  O122  1  0.46991851  0.23718234  0.45697004  1
  C  C123  1  0.43754383  0.19966716  0.39349695  1
  H  H124  1  0.37779747  0.13827004  0.24155538  1
  H  H125  1  0.34599235  0.33373290  0.43487494  1
  H  H126  1  0.42760965  0.46599434  0.01458943  1
  H  H127  1  0.37067171  0.34528031  0.06107059  1
  O  O128  1  0.29592283  0.15643576  0.07942464  1
  C  C129  1  0.45948426  0.42357397  0.49216970  1
  C  C130  1  0.31802133  0.19888362  0.02181033  1
  C  C131  1  0.39985701  0.44580997  0.48212374  1
  O  O132  1  0.45719811  0.46515518  0.29129401  1
  C  C133  1  0.26717929  0.32166413  0.70379672  1
  C  C134  1  0.45646106  0.02523120  0.81903278  1
  C  C135  1  0.34543760  0.25076132  0.94398621  1
  O  O136  1  0.37759206  0.16638497  0.65322844  1
  C  C137  1  0.38989708  0.26436721  0.78683991  1
  H  H138  1  0.28381840  0.10739749  0.67788551  1
  C  C139  1  0.49073520  0.46366598  0.57014695  1
  Cu  Cu140  1  0.34550302  0.15331210  0.52451479  1
  C  C141  1  0.39759159  0.37650879  0.91100562  1
  H  H142  1  0.33768447  0.36707259  0.61111949  1
  H  H143  1  0.33973339  0.15106181  0.82620650  1
  N  N144  1  0.41252821  0.46154584  0.94700299  1
  C  C145  1  0.41013442  0.34259419  0.81671469  1
  C  C146  1  0.39915501  0.00994498  0.80500843  1
  H  H147  1  0.46637666  0.21594540  0.93963138  1
  C  C148  1  0.35501496  0.21523341  0.84658690  1
  H  H149  1  0.28578207  0.34908232  0.77243868  1
  C  C150  1  0.29477760  0.33342798  0.61492098  1
  H  H151  1  0.45346506  0.47008778  0.82357730  1
  C  C152  1  0.40068903  0.23012713  0.68819140  1
  H  H153  1  0.43014018  0.37967221  0.75747935  1
  O  O154  1  0.43773934  0.27128586  0.63532708  1
  O  O155  1  0.33563221  0.04225900  0.53296809  1
  C  C156  1  0.49317333  0.24366043  0.99935476  1
  C  C157  1  0.37072524  0.32696541  0.98066830  1
  C  C158  1  0.47888862  0.01007742  0.98120608  1
  H  H159  1  0.28947240  0.48885204  0.62336339  1
  C  C160  1  0.26971973  0.29250324  0.52962783  1
  H  H161  1  0.37781132  0.00070355  0.73102155  1
  H  H162  1  0.28119788  0.77565614  0.47826213  1
  H  H163  1  0.36744679  0.65591337  0.01810406  1
  C  C164  1  0.44055586  0.83663381  0.10802457  1
  C  C165  1  0.41810400  0.73845171  0.23462996  1
  Cu  Cu166  1  0.46524167  0.55034849  0.38512943  1
  H  H167  1  0.34821120  0.51857262  0.08086010  1
  C  C168  1  0.39291089  0.67995245  0.16716025  1
  C  C169  1  0.28497163  0.58006388  0.35707614  1
  H  H170  1  0.37828865  0.61905036  0.19708833  1
  H  H171  1  0.30240317  0.51636517  0.35785284  1
  H  H172  1  0.46656532  0.86025604  0.26040342  1
  O  O173  1  0.46094042  0.52028280  0.14615553  1
  C  C174  1  0.44466004  0.81762850  0.20483148  1
  C  C175  1  0.41487155  0.77847311  0.03709100  1
  C  C176  1  0.38926349  0.69960404  0.07046967  1
  C  C177  1  0.27365689  0.61144391  0.26363333  1
  O  O178  1  0.41110280  0.64123626  0.36757718  1
  C  C179  1  0.28595888  0.63920071  0.44054702  1
  C  C180  1  0.42650394  0.71253095  0.33576230  1
  O  O181  1  0.45121936  0.76261177  0.39710839  1
  H  H182  1  0.28213413  0.57522940  0.19442639  1
  Cu  Cu183  1  0.25926135  0.87920411  0.06312756  1
  C  C184  1  0.25576031  0.75595751  0.33009770  1
  C  C185  1  0.27505923  0.72923268  0.41908727  1
  H  H186  1  0.45845997  0.89573002  0.08397426  1
  C  C187  1  0.25981100  0.69772677  0.24916534  1
  O  O188  1  0.28520503  0.94253898  0.46160992  1
  O  O189  1  0.25663007  0.67405514  0.07930001  1
  H  H190  1  0.39831689  0.98050788  0.05254294  1
  H  H191  1  0.32462732  0.55538636  0.86407822  1
  O  O192  1  0.37593065  0.84577723  0.61609294  1
  H  H193  1  0.37961143  0.57584173  0.68399216  1
  O  O194  1  0.29390976  0.97071042  0.99676725  1
  C  C195  1  0.31633212  0.98502742  0.91502596  1
  C  C196  1  0.41058437  0.80620075  0.94050588  1
  C  C197  1  0.34594596  0.79480183  0.66781997  1
  O  O198  1  0.29122023  0.79947141  0.67196901  1
  Cu  Cu199  1  0.26394133  0.88877683  0.75550913  1
  C  C200  1  0.40280471  0.53289618  0.63095703  1
  H  H201  1  0.28452176  0.68094371  0.76198549  1
  H  H202  1  0.46477582  0.76714071  0.70407948  1
  C  C203  1  0.33257981  0.67115542  0.77346037  1
  C  C204  1  0.43314752  0.72519753  0.74201962  1
  C  C205  1  0.28633672  0.99649374  0.52271778  1
  Cu  Cu206  1  0.41784270  0.80403983  0.50629273  1
  C  C207  1  0.41568149  0.59882184  0.84168444  1
  C  C208  1  0.37147775  0.72824713  0.72788595  1
  H  H209  1  0.29390121  0.64688383  0.60214950  1
  C  C210  1  0.46252732  0.51498301  0.64028360  1
  C  C211  1  0.45457064  0.65996967  0.80091850  1
  C  C212  1  0.35382091  0.60633605  0.82985520  1
  H  H213  1  0.48736492  0.52731864  0.92332902  1
  H  H214  1  0.39609169  0.76569880  0.87876841  1
  H  H215  1  0.42015510  0.87417402  0.91517300  1
  C  C216  1  0.30181690  0.51265526  0.54929255  1
  C  C217  1  0.29246387  0.60678203  0.53784694  1
  O  O218  1  0.28454429  0.98368796  0.83649582  1
  C  C219  1  0.37046664  0.50183553  0.55060196  1
  O  O220  1  0.49037598  0.86392830  0.52801649  1
  H  H221  1  0.49049069  0.54242341  0.69668125  1
  C  C222  1  0.44523440  0.51748504  0.88270019  1
  C  C223  1  0.41712707  0.99768860  0.98300465  1
  C  C224  1  0.37808264  0.99583849  0.90432881  1
  O  O225  1  0.25483562  0.51418667  0.99660356  1
  H  H226  1  0.65347199  0.37924184  0.36391147  1
  H  H227  1  0.55369029  0.32326216  0.14655043  1
  H  H228  1  0.66062375  0.31136762  0.08711624  1
  O  O229  1  0.69967974  0.11809997  0.12788751  1
  C  C230  1  0.62376764  0.06021915  0.46757011  1
  H  H231  1  0.64999152  0.07281665  0.31116331  1
  C  C232  1  0.63197412  0.33346292  0.02424606  1
  C  C233  1  0.65139998  0.03339512  0.38056570  1
  C  C234  1  0.60236255  0.46383434  0.12083405  1
  C  C235  1  0.69487534  0.36626432  0.39671962  1
  C  C236  1  0.59301222  0.14340209  0.47543935  1
  C  C237  1  0.59973813  0.41206153  0.03136523  1
  O  O238  1  0.59192134  0.19291705  0.41010204  1
  O  O239  1  0.63284294  0.44148467  0.19298316  1
  O  O240  1  0.53410679  0.01689857  0.14712662  1
  H  H241  1  0.67894112  0.44949665  0.00163815  1
  H  H242  1  0.52319723  0.29921282  0.32931119  1
  C  C243  1  0.70140232  0.36378773  0.49953121  1
  O  O244  1  0.74288288  0.46573183  0.15396125  1
  C  C245  1  0.51143056  0.01462079  0.06949484  1
  C  C246  1  0.51678853  0.28099947  0.17172603  1
  C  C247  1  0.72767698  0.06103108  0.16773417  1
  H  H248  1  0.74542619  0.35169801  0.25649239  1
  H  H249  1  0.73055820  0.09501080  0.24289980  1
  C  C250  1  0.74531994  0.34968082  0.33989309  1
  C  C251  1  0.50135493  0.26991334  0.26839987  1
  H  H252  1  0.68243924  0.04345700  0.00486414  1
  H  H253  1  0.54040181  0.40765902  0.79838607  1
  H  H254  1  0.53318499  0.27832082  0.97385706  1
  O  O255  1  0.63680671  0.07706555  0.82732190  1
  O  O256  1  0.57010376  0.16457023  0.56241449  1
  C  C257  1  0.66678478  0.01472801  0.81996440  1
  C  C258  1  0.56774280  0.44208694  0.94960862  1
  H  H259  1  0.54753933  0.04308212  0.85828095  1
  C  C260  1  0.58510930  0.25424254  0.77663116  1
  C  C261  1  0.56435779  0.39066425  0.86674444  1
  H  H262  1  0.60802223  0.18921411  0.75565590  1
  C  C263  1  0.59652833  0.31303303  0.86151651  1
  H  H264  1  0.73600782  0.10504709  0.81899569  1
  N  N265  1  0.53955020  0.26338643  0.72111938  1
  C  C266  1  0.70930352  0.48063098  0.94998432  1
  H  H267  1  0.65926773  0.40606920  0.63319355  1
  C  C268  1  0.64680028  0.37650861  0.56138494  1
  H  H269  1  0.62244240  0.30998071  0.57179777  1
  C  C270  1  0.69423387  0.49644515  0.85339116  1
  C  C271  1  0.55465182  0.45688959  0.59180278  1
  H  H272  1  0.64914108  0.48013932  0.82741600  1
  H  H273  1  0.51613558  0.31561028  0.73847039  1
  C  C274  1  0.62115638  0.01003905  0.55427645  1
  H  H275  1  0.66240816  0.22735854  0.92993144  1
  O  O276  1  0.57414562  0.48461776  0.66581999  1
  H  H277  1  0.59311205  0.02750077  0.61541383  1
  C  C278  1  0.63278629  0.28417013  0.94179157  1
  Cu  Cu279  1  0.50240637  0.22060001  0.59082551  1
  C  C280  1  0.50291620  0.02624115  0.87858196  1
  O  O281  1  0.59004605  0.40649764  0.52742651  1
  Cu  Cu282  1  0.69219395  0.50789523  0.25263008  1
  C  C283  1  0.60855071  0.61454474  0.35428936  1
  O  O284  1  0.63872260  0.54825633  0.34832067  1
  Cu  Cu285  1  0.51959628  0.58429908  0.21049600  1
  C  C286  1  0.60548464  0.65275237  0.45383685  1
  H  H287  1  0.54843733  0.75342823  0.40590110  1
  H  H288  1  0.70168577  0.92838589  0.31583462  1
  O  O289  1  0.57434481  0.53429662  0.11929123  1
  C  C290  1  0.68265944  0.91059259  0.47197708  1
  O  O291  1  0.57716967  0.64544975  0.28664199  1
  C  C292  1  0.68277322  0.95623878  0.38359795  1
  C  C293  1  0.74108219  0.94112842  0.04518539  1
  H  H294  1  0.73324004  0.68821499  0.42364947  1
  C  C295  1  0.57299225  0.72668101  0.46626454  1
  H  H296  1  0.74217867  0.80127036  0.41441188  1
  C  C297  1  0.71203825  0.82115746  0.47744754  1
  O  O298  1  0.74653982  0.57031322  0.32429926  1
  C  C299  1  0.74815588  0.97310563  0.14258423  1
  C  C300  1  0.63926143  0.66216944  0.62298412  1
  C  C301  1  0.72865966  0.88147891  0.83801407  1
  C  C302  1  0.53534253  0.83883585  0.58566493  1
  C  C303  1  0.57111787  0.76485086  0.55903931  1
  C  C304  1  0.70326256  0.95933528  0.88139706  1
  O  O305  1  0.72316872  0.86767928  0.74147508  1
  C  C306  1  0.63868281  0.62221657  0.53207485  1
  C  C307  1  0.60615822  0.73589297  0.63545168  1
  H  H308  1  0.68903889  0.68373723  0.75530426  1
  O  O309  1  0.54290039  0.87470873  0.66111178  1
  C  C310  1  0.71401449  0.56537833  0.68690619  1
  H  H311  1  0.50185388  0.64775510  0.81208486  1
  N  N312  1  0.67329141  0.63784200  0.70680842  1
  H  H313  1  0.60963919  0.76577286  0.70626986  1
  H  H314  1  0.65144396  0.89167191  0.62487110  1
  H  H315  1  0.74927669  0.58365685  0.64112687  1
  C  C316  1  0.73169755  0.54342596  0.79305827  1
  H  H317  1  0.66656168  0.56639847  0.51602765  1
  C  C318  1  0.65403797  0.93709684  0.56127067  1
  H  H319  1  0.68312742  0.51924330  0.64904298  1
  H  H320  1  0.54846950  0.50441317  0.95173127  1
  C  C321  1  0.70658142  0.98419560  0.97813522  1
  H  H322  1  0.65455228  0.98802183  0.74437328  1
  H  H323  1  0.68315670  0.76973467  0.50410269  1
  O  O324  1  0.84760851  0.32830751  0.23336074  1
  C  C325  1  0.85240440  0.32042769  0.32935632  1
  Cu  Cu326  1  0.90061827  0.37195838  0.14408459  1
  O  O327  1  0.89782961  0.30664115  0.37063416  1
  C  C328  1  0.98602338  0.47768591  0.09228751  1
  C  C329  1  0.79670604  0.33082245  0.38739996  1
  O  O330  1  0.94847359  0.42720532  0.06121228  1
  O  O331  1  0.99645926  0.08628411  0.08471436  1
  O  O332  1  0.82411267  0.49452433  0.35095872  1
  C  C333  1  0.98122505  0.14938369  0.03411231  1
  H  H334  1  0.89092522  0.03553209  0.04900131  1
  H  H335  1  0.98050716  0.14741217  0.35309933  1
  C  C336  1  0.80410432  0.33011583  0.49070559  1
  C  C337  1  0.88219498  0.09350925  0.00658535  1
  C  C338  1  0.92416230  0.15790826  0.98780464  1
  C  C339  1  0.83030865  0.09564375  0.95225751  1
  C  C340  1  0.86198546  0.22886695  0.87322351  1
  C  C341  1  0.91300442  0.22986469  0.92710816  1
  H  H342  1  0.76159802  0.34142689  0.62936223  1
  C  C343  1  0.82144698  0.16172103  0.88027827  1
  H  H344  1  0.94603444  0.28027942  0.91347340  1
  H  H345  1  0.84723627  0.28446107  0.83217671  1
  C  C346  1  0.95905705  0.05121989  0.52481201  1
  H  H347  1  0.93429967  0.11055854  0.52346574  1
  H  H348  1  0.79559261  0.04818046  0.96400391  1
  H  H349  1  0.95128064  0.00971732  0.58991207  1
  O  O350  1  0.75640839  0.19990959  0.74543002  1
  C  C351  1  0.77002887  0.15487202  0.81294144  1
  C  C352  1  0.75547655  0.34080132  0.54834621  1
  H  H353  1  0.84857348  0.32158806  0.52688497  1
  O  O354  1  0.98203832  0.55555092  0.08071564  1
  H  H355  1  0.86123040  0.71541228  0.21434963  1
  O  O356  1  0.96463835  0.60867607  0.40350885  1
  C  C357  1  0.79969156  0.60110074  0.46726149  1
  O  O358  1  0.81923504  0.54618046  0.12624588  1
  C  C359  1  0.84054268  0.87286619  0.38652953  1
  C  C360  1  0.86532531  0.75098316  0.28507005  1
  N  N361  1  0.80178181  0.86269445  0.21475632  1
  H  H362  1  0.79626642  0.82810827  0.15157987  1
  C  C363  1  0.89852653  0.71634786  0.35903469  1
  O  O364  1  0.91844237  0.59061874  0.26469462  1
  C  C365  1  0.92956179  0.63217619  0.34514589  1
  C  C366  1  0.83290360  0.82901718  0.29435322  1
  C  C367  1  0.77409463  0.50744534  0.09405732  1
  Cu  Cu368  1  0.86381119  0.50715947  0.23276069  1
  H  H369  1  0.82337829  0.93535425  0.40663149  1
  C  C370  1  0.87782726  0.83600983  0.45263554  1
  C  C371  1  0.77844230  0.93858472  0.22429525  1
  C  C372  1  0.78758330  0.54986907  0.37725638  1
  C  C373  1  0.90890058  0.75953753  0.44744237  1
  C  C374  1  0.76510134  0.67315807  0.47901176  1
  H  H375  1  0.78562657  0.97567701  0.29348873  1
  H  H376  1  0.76745275  0.88600631  0.01700401  1
  O  O377  1  0.94339163  0.60367928  0.72451517  1
  O  O378  1  0.91327637  0.86548877  0.61545564  1
  C  C379  1  0.78506502  0.57735954  0.82957480  1
  C  C380  1  0.85376386  0.63836835  0.61351447  1
  C  C381  1  0.90281374  0.61741990  0.67616338  1
  H  H382  1  0.83027348  0.75669000  0.68555754  1
  H  H383  1  0.81524463  0.60816477  0.78250034  1
  C  C384  1  0.88092889  0.88286068  0.55047824  1
  O  O385  1  0.92712684  0.92908886  0.93118027  1
  C  C386  1  0.96610805  0.90009925  0.88577842  1
  H  H387  1  0.96810636  0.83307237  0.71733060  1
  C  C388  1  0.79479323  0.56794686  0.92970131  1
  C  C389  1  0.82119027  0.71404379  0.62662552  1
  H  H390  1  0.83443259  0.59081817  0.96576557  1
  O  O391  1  0.83730243  0.93432280  0.56587575  1
  Cu  Cu392  1  0.77899184  0.90005049  0.64916481  1
  C  C393  1  0.77580712  0.73013764  0.55827791  1
  H  H394  1  0.86820823  0.52205756  0.52434909  1
  C  C395  1  0.84251088  0.58105064  0.53348842  1
  O  O396  1  0.75389960  0.83118944  0.88722577  1
  C  C397  1  0.76120467  0.51254300  0.99033873  1
  N  N398  1  0.75367820  0.80992494  0.55443268  1
  H  H399  1  0.93089502  0.72835482  0.50795884  1
