# generated using pymatgen
data_Cu2H15C24NO8
_symmetry_space_group_name_H-M   'P 1'
_cell_length_a   18.33075625
_cell_length_b   18.45488111
_cell_length_c   13.57171062
_cell_angle_alpha   90.00000000
_cell_angle_beta   90.00000000
_cell_angle_gamma   90.00000000
_symmetry_Int_Tables_number   1
_chemical_formula_structural   Cu2H15C24NO8
_chemical_formula_sum   'Cu16 H120 C192 N8 O64'
_cell_volume   4591.20013910
_cell_formula_units_Z   8
loop_
 _symmetry_equiv_pos_site_id
 _symmetry_equiv_pos_as_xyz
  1  'x, y, z'
loop_
 _atom_site_type_symbol
 _atom_site_label
 _atom_site_symmetry_multiplicity
 _atom_site_fract_x
 _atom_site_fract_y
 _atom_site_fract_z
 _atom_site_occupancy
  C  C0  1  0.19649647  0.30701392  0.30248224  1
  C  C1  1  0.13870092  0.07912961  0.31789237  1
  O  O2  1  0.10153892  0.12459298  0.06760598  1
  O  O3  1  0.10774841  0.01409787  0.13148512  1
  N  N4  1  0.16658046  0.08579031  0.49318337  1
  H  H5  1  0.20417877  0.22167648  0.46289945  1
  O  O6  1  0.05341275  0.27653594  0.02619397  1
  C  C7  1  0.17086013  0.23059182  0.30834965  1
  C  C8  1  0.10694284  0.08285135  0.14075791  1
  C  C9  1  0.18322817  0.19473391  0.39876702  1
  C  C10  1  0.12728997  0.11885495  0.23223593  1
  C  C11  1  0.14349299  0.19450813  0.22781354  1
  H  H12  1  0.14016520  0.22138555  0.15449472  1
  C  C13  1  0.16248370  0.12092102  0.40062268  1
  H  H14  1  0.14251777  0.44443402  0.15472929  1
  C  C15  1  0.18766036  0.00597442  0.48830803  1
  O  O16  1  0.19624194  0.34035836  0.38260427  1
  O  O17  1  0.21402006  0.34080914  0.22521225  1
  C  C18  1  0.03955890  0.33435160  0.06702164  1
  H  H19  1  0.01771824  0.46470383  0.12726409  1
  C  C20  1  0.04816857  0.46387328  0.05296223  1
  Cu  Cu21  1  0.03165471  0.35425338  0.27706586  1
  O  O22  1  0.03019506  0.45553483  0.28250901  1
  C  C23  1  0.05848977  0.39889747  0.00619746  1
  H  H24  1  0.13004382  0.01955481  0.31522625  1
  H  H25  1  0.23536403  0.01821368  0.44077313  1
  Cu  Cu26  1  0.24143250  0.12226686  0.02742407  1
  O  O27  1  0.00161843  0.33883195  0.14516462  1
  C  C28  1  0.17239516  0.48821840  0.19129535  1
  C  C29  1  0.07592788  0.49438081  0.32568261  1
  O  O30  1  0.24773185  0.32398868  0.88219963  1
  O  O31  1  0.20837424  0.10851911  0.90709754  1
  H  H32  1  0.09236482  0.04831349  0.57512696  1
  C  C33  1  0.13858027  0.14420006  0.65918055  1
  C  C34  1  0.14272338  0.22122617  0.64877333  1
  Cu  Cu35  1  0.06590800  0.10288502  0.94425173  1
  C  C36  1  0.10769063  0.10695692  0.56696027  1
  C  C37  1  0.13471760  0.45505516  0.76317910  1
  C  C38  1  0.19748745  0.21933660  0.81193567  1
  C  C39  1  0.18923917  0.14277034  0.82460049  1
  C  C40  1  0.15685766  0.10643633  0.74424245  1
  C  C41  1  0.10585474  0.46051090  0.86633972  1
  H  H42  1  0.07310879  0.13730841  0.51630521  1
  C  C43  1  0.17388951  0.25668506  0.72623200  1
  C  C44  1  0.08783649  0.39266289  0.91054714  1
  H  H45  1  0.09276231  0.34060088  0.87419073  1
  H  H46  1  0.15126153  0.04782713  0.74432878  1
  O  O47  1  0.15936286  0.45338503  0.68481059  1
  H  H48  1  0.12486209  0.24956483  0.58279509  1
  O  O49  1  0.01988486  0.06745142  0.83610211  1
  H  H50  1  0.01173354  0.34218584  0.56856078  1
  H  H51  1  0.18528420  0.31497869  0.71500664  1
  C  C52  1  0.23439826  0.26163389  0.88804624  1
  C  C53  1  0.15223790  0.85859566  0.36022908  1
  H  H54  1  0.21500891  0.90791369  0.27949468  1
  H  H55  1  0.16409876  0.59262933  0.40447654  1
  C  C56  1  0.23487479  0.51850046  0.14780505  1
  C  C57  1  0.19440267  0.79562971  0.20349962  1
  H  H58  1  0.03399550  0.58711616  0.13756311  1
  C  C59  1  0.14812574  0.79920278  0.28366796  1
  O  O60  1  0.23117358  0.73833652  0.05878610  1
  H  H61  1  0.05566519  0.64302042  0.25909221  1
  C  C62  1  0.09386856  0.68630270  0.23550674  1
  N  N63  1  0.06525735  0.58901173  0.07250792  1
  C  C64  1  0.12069696  0.63370684  0.06874069  1
  C  C65  1  0.09987177  0.74231012  0.30567188  1
  C  C66  1  0.13336884  0.68360482  0.14416093  1
  C  C67  1  0.06618895  0.53011921  0.00357285  1
  C  C68  1  0.19235143  0.74118436  0.12850096  1
  C  C69  1  0.18159727  0.57004955  0.33246572  1
  O  O70  1  0.19513213  0.91879106  0.34642662  1
  H  H71  1  0.13718338  0.98284484  0.45180025  1
  O  O72  1  0.12422641  0.85630551  0.44128094  1
  H  H73  1  0.07198890  0.73706600  0.37879845  1
  C  C74  1  0.14562111  0.51366978  0.28193856  1
  C  C75  1  0.24614748  0.59590026  0.29176326  1
  O  O76  1  0.05953014  0.52139303  0.40912459  1
  H  H77  1  0.00086068  0.85952651  0.27028671  1
  H  H78  1  0.23602762  0.83885045  0.19806203  1
  Cu  Cu79  1  0.07550506  0.97330366  0.00474785  1
  C  C80  1  0.09218306  0.53245774  0.90584814  1
  C  C81  1  0.15157945  0.70057278  0.67730981  1
  C  C82  1  0.14268212  0.93888038  0.63850417  1
  H  H83  1  0.13371625  0.75028320  0.95776920  1
  H  H84  1  0.10173924  0.89096763  0.77398892  1
  C  C85  1  0.14633232  0.91887563  0.73677903  1
  H  H86  1  0.10598757  0.58219627  0.86372801  1
  C  C87  1  0.19987129  0.97920937  0.59421498  1
  H  H88  1  0.05484744  0.64087600  0.68342942  1
  C  C89  1  0.20766267  0.94325131  0.79155065  1
  C  C90  1  0.20973228  0.92767390  0.89870531  1
  O  O91  1  0.02125605  0.95157603  0.88087525  1
  H  H92  1  0.09602948  0.92578398  0.59243846  1
  C  C93  1  0.13615373  0.73402751  0.88044397  1
  O  O94  1  0.15213373  0.91502500  0.94719499  1
  H  H95  1  0.15625864  0.69072751  0.59749578  1
  C  C96  1  0.08868950  0.67669483  0.72575580  1
  C  C97  1  0.20890516  0.73653208  0.72950830  1
  C  C98  1  0.20066239  0.75086659  0.83073460  1
  C  C99  1  0.07934577  0.69439523  0.83024397  1
  H  H100  1  0.14926207  0.62490049  0.99815343  1
  C  C101  1  0.01013161  0.99943554  0.81813806  1
  H  H102  1  0.24654047  0.77705236  0.86459132  1
  H  H103  1  0.02631529  0.64646212  0.94913046  1
  C  C104  1  0.00906246  0.67685572  0.88445544  1
  O  O105  1  0.42111187  0.26135670  0.18992975  1
  H  H106  1  0.29697800  0.20946918  0.31571564  1
  O  O107  1  0.35027982  0.34418586  0.12901582  1
  C  C108  1  0.32640540  0.09914860  0.31174433  1
  O  O109  1  0.31653355  0.48271655  0.40829530  1
  C  C110  1  0.36656600  0.06407730  0.46121073  1
  C  C111  1  0.47187054  0.42505611  0.05800035  1
  Cu  Cu112  1  0.30173215  0.39479067  0.23016796  1
  O  O113  1  0.47881841  0.06176381  0.03650598  1
  C  C114  1  0.41588603  0.31490027  0.14329798  1
  C  C115  1  0.47974303  0.35748707  0.11050634  1
  O  O116  1  0.32535913  0.02034802  0.17724348  1
  C  C117  1  0.30879371  0.08398930  0.21123410  1
  C  C118  1  0.34132618  0.17872515  0.45801609  1
  Cu  Cu119  1  0.25245428  0.41050520  0.39909664  1
  C  C120  1  0.32185850  0.16666343  0.35831032  1
  O  O121  1  0.28197683  0.13357332  0.15848993  1
  O  O122  1  0.38731056  0.44074373  0.28715650  1
  C  C123  1  0.37502207  0.48328275  0.35718871  1
  C  C124  1  0.34932792  0.03803263  0.37110054  1
  H  H125  1  0.41460933  0.44682767  0.04736736  1
  H  H126  1  0.29281103  0.25826629  0.00360352  1
  H  H127  1  0.39631451  0.12569846  0.59373417  1
  C  C128  1  0.37336555  0.20830368  0.78114649  1
  H  H129  1  0.32433959  0.21666299  0.73386232  1
  C  C130  1  0.48268092  0.19320342  0.92759859  1
  O  O131  1  0.49719487  0.38381519  0.75376014  1
  C  C132  1  0.37031382  0.15471317  0.84868174  1
  C  C133  1  0.42566003  0.14194863  0.92028724  1
  H  H134  1  0.31658328  0.12311894  0.86043017  1
  O  O135  1  0.31560382  0.30472633  0.53912294  1
  H  H136  1  0.43687251  0.31287855  0.64858487  1
  H  H137  1  0.39053516  0.36477079  0.74419712  1
  C  C138  1  0.43346142  0.25825531  0.78417470  1
  C  C139  1  0.43829582  0.32792080  0.72752262  1
  C  C140  1  0.42480157  0.07761084  0.98160398  1
  O  O141  1  0.37521758  0.03027256  0.97147376  1
  C  C142  1  0.48759350  0.24880282  0.85957690  1
  O  O143  1  0.26749616  0.21652469  0.97902175  1
  O  O144  1  0.49953614  0.44471532  0.61098973  1
  C  C145  1  0.26428989  0.00028009  0.64825111  1
  H  H146  1  0.30263256  0.03961857  0.61763554  1
  C  C147  1  0.32772030  0.24799782  0.50254119  1
  C  C148  1  0.36853619  0.12003058  0.52222736  1
  H  H149  1  0.40050949  0.56509236  0.20002193  1
  C  C150  1  0.44578666  0.88187693  0.32429041  1
  Cu  Cu151  1  0.30106979  0.98556336  0.05263778  1
  C  C152  1  0.27812082  0.57130633  0.19989700  1
  H  H153  1  0.32178641  0.77047449  0.18651683  1
  C  C154  1  0.44292621  0.84966094  0.14740125  1
  C  C155  1  0.44859249  0.62773418  0.05011154  1
  C  C156  1  0.35559561  0.59883755  0.17142589  1
  C  C157  1  0.41393292  0.87745920  0.41690989  1
  C  C158  1  0.43039931  0.53685617  0.37694460  1
  H  H159  1  0.36305140  0.65582181  0.19994652  1
  O  O160  1  0.37708607  0.60404704  0.06593212  1
  C  C161  1  0.41287276  0.58883604  0.44995811  1
  C  C162  1  0.32103279  0.78999683  0.34512424  1
  H  H163  1  0.25805243  0.50061722  0.07875554  1
  C  C164  1  0.34810595  0.79921885  0.25094333  1
  H  H165  1  0.48308108  0.76607932  0.37452675  1
  C  C166  1  0.41067152  0.84407954  0.24608525  1
  C  C167  1  0.35072395  0.83347709  0.42286800  1
  O  O168  1  0.41868444  0.80905292  0.07623630  1
  O  O169  1  0.49676699  0.62454716  0.10842858  1
  H  H170  1  0.34671873  0.97887779  0.34858461  1
  H  H171  1  0.27188967  0.76029447  0.35609159  1
  H  H172  1  0.43836544  0.90620695  0.47881835  1
  H  H173  1  0.49656963  0.91204167  0.31238051  1
  Cu  Cu174  1  0.49197637  0.97237018  0.08084008  1
  H  H175  1  0.45627467  0.81522408  0.02149128  1
  H  H176  1  0.28558388  0.62911003  0.33392855  1
  C  C177  1  0.47064316  0.63139095  0.48439943  1
  C  C178  1  0.49950805  0.53262376  0.33036786  1
  H  H179  1  0.35710159  0.58999895  0.48135662  1
  O  O180  1  0.32694642  0.79474306  0.72484312  1
  C  C181  1  0.26685329  0.97802478  0.74548577  1
  H  H182  1  0.34878370  0.62410533  0.89813497  1
  C  C183  1  0.31036605  0.82873348  0.52198802  1
  C  C184  1  0.48058640  0.67257777  0.74254867  1
  N  N185  1  0.44667831  0.65230291  0.57710644  1
  O  O186  1  0.27107559  0.93548165  0.93919806  1
  C  C187  1  0.40905964  0.64981677  0.77145247  1
  H  H188  1  0.25507061  0.85375633  0.51750118  1
  H  H189  1  0.34598671  0.85696661  0.57605748  1
  H  H190  1  0.36275946  0.64686445  0.71975260  1
  C  C191  1  0.40359175  0.63862602  0.87206524  1
  H  H192  1  0.34225452  0.73650647  0.57905020  1
  C  C193  1  0.45932236  0.64650047  0.94458279  1
  O  O194  1  0.28627351  0.74897173  0.57184554  1
  C  C195  1  0.27983210  0.76104798  0.68680573  1
  H  H196  1  0.31252742  0.99736860  0.78978940  1
  H  H197  1  0.48966185  0.79699898  0.55125805  1
  C  C198  1  0.49697918  0.67564749  0.63628538  1
  C  C199  1  0.71235114  0.20647004  0.28080783  1
  C  C200  1  0.64212373  0.19544912  0.23586479  1
  H  H201  1  0.50879052  0.20640324  0.37186159  1
  C  C202  1  0.52134693  0.09558666  0.42239261  1
  H  H203  1  0.55245285  0.27375873  0.16891335  1
  O  O204  1  0.54608985  0.02583095  0.25516966  1
  C  C205  1  0.60607790  0.43022454  0.04804417  1
  C  C206  1  0.51754290  0.17111487  0.43701152  1
  C  C207  1  0.63883253  0.18219065  0.13282799  1
  H  H208  1  0.65444726  0.10743196  0.37523294  1
  H  H209  1  0.67814188  0.24132129  0.42813125  1
  C  C210  1  0.54722186  0.32594525  0.13170750  1
  C  C211  1  0.70147890  0.19372135  0.07206786  1
  H  H212  1  0.58874279  0.16099187  0.09185001  1
  C  C213  1  0.53382944  0.05981635  0.32500373  1
  C  C214  1  0.72005243  0.20822763  0.39368060  1
  H  H215  1  0.59290223  0.18992269  0.28092551  1
  C  C216  1  0.60925565  0.36147745  0.09431860  1
  H  H217  1  0.66419787  0.33432649  0.10465179  1
  C  C218  1  0.70215500  0.45539316  0.46741246  1
  C  C219  1  0.70806333  0.12452331  0.41249348  1
  H  H220  1  0.74857896  0.09484433  0.22711324  1
  H  H221  1  0.59794094  0.41462821  0.47949328  1
  C  C222  1  0.53415924  0.46276655  0.03728688  1
  H  H223  1  0.70911943  0.48620107  0.09859864  1
  C  C224  1  0.67064430  0.47905297  0.03798660  1
  H  H225  1  0.50760783  0.48766650  0.27638544  1
  H  H226  1  0.55879244  0.30806662  0.48092042  1
  C  C227  1  0.52967492  0.05056381  0.50598326  1
  C  C228  1  0.53437596  0.15587253  0.61841960  1
  O  O229  1  0.52773908  0.05773688  0.76750092  1
  C  C230  1  0.74343828  0.08266138  0.58245330  1
  Cu  Cu231  1  0.60699756  0.10031423  0.83467966  1
  C  C232  1  0.52682401  0.08080688  0.59999382  1
  C  C233  1  0.62906991  0.28512285  0.58130403  1
  H  H234  1  0.63930889  0.24146828  0.63219379  1
  C  C235  1  0.52108878  0.43407243  0.69078387  1
  H  H236  1  0.63914618  0.12696857  0.54409521  1
  H  H237  1  0.54331369  0.17320775  0.69583474  1
  C  C238  1  0.65363199  0.40180463  0.50017041  1
  O  O239  1  0.63616629  0.16921269  0.92330735  1
  C  C240  1  0.69373518  0.11431501  0.51835157  1
  C  C241  1  0.60296843  0.47668111  0.82714429  1
  H  H242  1  0.58276258  0.43235565  0.87346833  1
  O  O243  1  0.66455521  0.11695836  0.71779843  1
  C  C244  1  0.68167725  0.34031804  0.55552766  1
  C  C245  1  0.72379490  0.08738732  0.68605573  1
  C  C246  1  0.52600342  0.02938195  0.68352333  1
  N  N247  1  0.56829887  0.26997851  0.53581866  1
  H  H248  1  0.53282113  0.28913558  0.86864871  1
  C  C249  1  0.57920840  0.48318136  0.73245378  1
  C  C250  1  0.53171988  0.20102326  0.53314245  1
  C  C251  1  0.69654301  0.18426204  0.96364396  1
  H  H252  1  0.52215431  0.19450506  0.98497157  1
  H  H253  1  0.65358241  0.91435902  0.14078281  1
  C  C254  1  0.65552968  0.84929058  0.01190358  1
  C  C255  1  0.58398548  0.74948360  0.24200728  1
  C  C256  1  0.67408528  0.79078101  0.48279699  1
  C  C257  1  0.59736255  0.76633404  0.34160203  1
  O  O258  1  0.67682144  0.62671968  0.36039005  1
  C  C259  1  0.66962496  0.77619156  0.38314444  1
  H  H260  1  0.62509151  0.72947519  0.19141080  1
  H  H261  1  0.72017207  0.77581753  0.33480648  1
  Cu  Cu262  1  0.74745945  0.61942911  0.45345881  1
  C  C263  1  0.68112627  0.87054839  0.10142378  1
  O  O264  1  0.64899835  0.53920590  0.25837435  1
  C  C265  1  0.63161353  0.57874102  0.32468532  1
  C  C266  1  0.54091316  0.62706280  0.43684172  1
  C  C267  1  0.53415511  0.77485721  0.40652551  1
  C  C268  1  0.55526819  0.57786163  0.36247806  1
  H  H269  1  0.58644054  0.66093861  0.46275650  1
  H  H270  1  0.52895413  0.75181427  0.20947546  1
  H  H271  1  0.68420873  0.50092935  0.41782856  1
  O  O272  1  0.50212378  0.88546250  0.13665481  1
  C  C273  1  0.74358409  0.83683556  0.14526537  1
  H  H274  1  0.53293279  0.51805437  0.01353957  1
  H  H275  1  0.53525853  0.99188382  0.49989998  1
  Cu  Cu276  1  0.54420476  0.90272803  0.77545566  1
  H  H277  1  0.57472724  0.67861966  0.96080598  1
  C  C278  1  0.61193495  0.79575552  0.54452436  1
  C  C279  1  0.69918441  0.63209994  0.64501599  1
  C  C280  1  0.68542417  0.78962434  0.96550199  1
  H  H281  1  0.72815787  0.61598370  0.84106117  1
  O  O282  1  0.56310575  0.81792863  0.70035563  1
  H  H283  1  0.65807922  0.76937973  0.89801482  1
  O  O284  1  0.68229047  0.62838480  0.55687552  1
  C  C285  1  0.65962454  0.58352535  0.71391557  1
  O  O286  1  0.68210625  0.81823552  0.68396830  1
  O  O287  1  0.56857663  0.85249890  0.89034325  1
  C  C288  1  0.52739082  0.67117011  0.91255051  1
  N  N289  1  0.68327911  0.52317711  0.96937455  1
  H  H290  1  0.59070011  0.54393518  0.59397241  1
  C  C291  1  0.61883496  0.80811535  0.64815405  1
  C  C292  1  0.53764666  0.68219353  0.81319482  1
  O  O293  1  0.52782261  0.96272974  0.66823832  1
  C  C294  1  0.68406204  0.57990139  0.81222046  1
  H  H295  1  0.55218312  0.68269168  0.60579186  1
  H  H296  1  0.59163004  0.69719891  0.78242687  1
  Cu  Cu297  1  0.74202923  0.75792956  0.76115923  1
  C  C298  1  0.60660254  0.53956094  0.67195770  1
  C  C299  1  0.59386573  0.88634523  0.96303810  1
  C  C300  1  0.65237310  0.52825687  0.87308740  1
  C  C301  1  0.54005211  0.78847211  0.50430593  1
  H  H302  1  0.72579747  0.79978509  0.51963462  1
  O  O303  1  0.74893027  0.67695407  0.67060842  1
  H  H304  1  0.73103970  0.55178590  0.98696974  1
  O  O305  1  0.57026872  0.94813362  0.98810502  1
  O  O306  1  0.90162819  0.13718380  0.04580346  1
  C  C307  1  0.76572050  0.21501758  0.11674519  1
  C  C308  1  0.77610400  0.07505492  0.37884513  1
  C  C309  1  0.77246324  0.22157036  0.21987792  1
  H  H310  1  0.81481605  0.22611760  0.06683969  1
  C  C311  1  0.95641989  0.03253938  0.19266117  1
  H  H312  1  0.95451331  0.08904208  0.21500137  1
  H  H313  1  0.82654619  0.02997100  0.24986609  1
  H  H314  1  0.86536441  0.15941931  0.49473154  1
  O  O315  1  0.91245629  0.23910523  0.35368337  1
  C  C316  1  0.78696201  0.06859964  0.27824812  1
  C  C317  1  0.89437770  0.07162001  0.02902584  1
  H  H318  1  0.82723730  0.23739134  0.25380887  1
  H  H319  1  0.86217197  0.00419377  0.41669724  1
  C  C320  1  0.95016235  0.26824786  0.41520089  1
  C  C321  1  0.92967959  0.02109247  0.09796586  1
  Cu  Cu322  1  0.98416642  0.19932393  0.04028326  1
  H  H323  1  0.97513375  0.07158661  0.49336993  1
  H  H324  1  0.77712983  0.22411546  0.41393138  1
  C  C325  1  0.82661237  0.49758410  0.45227328  1
  C  C326  1  0.82144319  0.03773452  0.45012946  1
  O  O327  1  0.89348118  0.49373489  0.47435263  1
  O  O328  1  0.99214322  0.32361398  0.39245287  1
  C  C329  1  0.92433591  0.22253749  0.72019238  1
  H  H330  1  0.84974250  0.13256077  0.67250492  1
  O  O331  1  0.85156279  0.04941145  0.96283789  1
  C  C332  1  0.97675142  0.29524608  0.59365904  1
  C  C333  1  0.80195593  0.38892328  0.55094853  1
  H  H334  1  0.85827990  0.37430578  0.56428536  1
  Cu  Cu335  1  0.79219912  0.09081434  0.87200600  1
  C  C336  1  0.80638177  0.04392269  0.55062340  1
  O  O337  1  0.76772324  0.06126886  0.74784439  1
  C  C338  1  0.88799114  0.17712418  0.65081512  1
  C  C339  1  0.89285942  0.19451728  0.54954768  1
  N  N340  1  0.95135418  0.22624390  0.89923300  1
  C  C341  1  0.93933932  0.25225129  0.52183276  1
  C  C342  1  0.97136173  0.02699873  0.55037444  1
  C  C343  1  0.92951258  0.19173726  0.82424659  1
  H  H344  1  0.84256783  0.02301020  0.60796442  1
  H  H345  1  0.91678445  0.13631712  0.84588648  1
  C  C346  1  0.98372035  0.04005849  0.65004482  1
  C  C347  1  0.77533959  0.44926884  0.50025227  1
  H  H348  1  0.98799917  0.09677951  0.68128077  1
  H  H349  1  0.97081059  0.27664900  0.87835176  1
  C  C350  1  0.96867470  0.28119470  0.69377277  1
  H  H351  1  0.78302016  0.27935282  0.61093454  1
  H  H352  1  0.99629576  0.31650481  0.74913437  1
  O  O353  1  0.75252394  0.18000608  0.91176785  1
  C  C354  1  0.76039124  0.33042573  0.57665480  1
  C  C355  1  0.77689238  0.77742587  0.09524118  1
  H  H356  1  0.91124731  0.74036290  0.23574779  1
  C  C357  1  0.83694658  0.87107302  0.24581503  1
  H  H358  1  0.80341014  0.87196337  0.44078874  1
  H  H359  1  0.84070543  0.92836170  0.26928499  1
  C  C360  1  0.96657025  0.89039029  0.12053418  1
  O  O361  1  0.96027582  0.64505832  0.36917636  1
  C  C362  1  0.89864032  0.75028812  0.31198261  1
  C  C363  1  0.92266997  0.70089313  0.38714524  1
  H  H364  1  0.86120556  0.86186318  0.16768519  1
  C  C365  1  0.86258632  0.81422555  0.32996737  1
  O  O366  1  0.80554873  0.55056509  0.39876542  1
  C  C367  1  0.84305478  0.82844887  0.42601741  1
  N  N368  1  0.97453750  0.98913360  0.35598565  1
  Cu  Cu369  1  0.97128833  0.56309945  0.45466354  1
  H  H370  1  0.82340054  0.75060343  0.12720195  1
  N  N371  1  0.76302673  0.86594712  0.22836638  1
  C  C372  1  0.97149196  0.97230558  0.25468121  1
  C  C373  1  0.90685662  0.72243784  0.48623642  1
  H  H374  1  0.96448799  0.88092073  0.39046012  1
  C  C375  1  0.93213113  0.95052885  0.06836831  1
  C  C376  1  0.97970928  0.89997634  0.22432250  1
  C  C377  1  0.97196361  0.81591817  0.09388214  1
  O  O378  1  0.97681465  0.75247915  0.08257090  1
  C  C379  1  0.97236333  0.93551481  0.41882751  1
  C  C380  1  0.75042179  0.75945301  0.00521249  1
  O  O381  1  0.93409188  0.64275207  0.84289411  1
  Cu  Cu382  1  0.86467700  0.70020048  0.75364804  1
  O  O383  1  0.79421924  0.70009679  0.85117771  1
  C  C384  1  0.93260438  0.68204836  0.56994244  1
  C  C385  1  0.79583892  0.70290941  0.95284324  1
  O  O386  1  0.92359924  0.71182778  0.65327528  1
  H  H387  1  0.85344594  0.80712101  0.57813269  1
  O  O388  1  0.96969764  0.62264161  0.56218244  1
  H  H389  1  0.91716095  0.62627770  0.90739159  1
  C  C390  1  0.97250263  0.89356584  0.59366467  1
  C  C391  1  0.96764567  0.95256144  0.52320937  1
  H  H392  1  0.91154447  0.93958713  0.99582962  1
  C  C393  1  0.98965209  0.98453838  0.71953071  1
  C  C394  1  0.98597843  0.91108997  0.69099788  1
  H  H395  1  0.98944104  0.86761390  0.74552284  1
  H  H396  1  0.95790944  0.83903093  0.56791460  1
  H  H397  1  0.98061411  0.72871132  0.90885686  1
  O  O398  1  0.82708997  0.65643785  0.99929414  1
  C  C399  1  0.86676528  0.78590686  0.50251962  1
