# generated using pymatgen
data_ZnH4C9(NO2)2
_symmetry_space_group_name_H-M   'P 1'
_cell_length_a   22.69955956
_cell_length_b   24.95638730
_cell_length_c   13.80583063
_cell_angle_alpha   90.00000000
_cell_angle_beta   90.00000000
_cell_angle_gamma   90.00000000
_symmetry_Int_Tables_number   1
_chemical_formula_structural   ZnH4C9(NO2)2
_chemical_formula_sum   'Zn24 H96 C216 N48 O96'
_cell_volume   7820.98924552
_cell_formula_units_Z   24
loop_
 _symmetry_equiv_pos_site_id
 _symmetry_equiv_pos_as_xyz
  1  'x, y, z'
loop_
 _atom_site_type_symbol
 _atom_site_label
 _atom_site_symmetry_multiplicity
 _atom_site_fract_x
 _atom_site_fract_y
 _atom_site_fract_z
 _atom_site_occupancy
  C  C0  1  0.25139660  0.09198734  0.27507826  1
  C  C1  1  0.30364249  0.10349428  0.22693863  1
  C  C2  1  0.43181087  0.03276789  0.04141293  1
  O  O3  1  0.10279163  0.22701221  0.16198933  1
  N  N4  1  0.14593281  0.07975091  0.26483972  1
  C  C5  1  0.19647343  0.10081549  0.22663760  1
  C  C6  1  0.19774313  0.11728240  0.12734706  1
  O  O7  1  0.38033476  0.04698110  0.03448488  1
  C  C8  1  0.30501736  0.11740794  0.13013723  1
  Zn  Zn9  1  0.13263047  0.00944104  0.29796671  1
  Zn  Zn10  1  0.45874222  0.21508989  0.28141020  1
  H  H11  1  0.25312022  0.07688613  0.35059694  1
  H  H12  1  0.34958883  0.12335904  0.09321795  1
  C  C13  1  0.25084211  0.12111450  0.08454859  1
  O  O14  1  0.41059245  0.09956721  0.23777400  1
  H  H15  1  0.10791737  0.08554136  0.23099407  1
  C  C16  1  0.36058199  0.09525031  0.28417211  1
  C  C17  1  0.49748897  0.12260520  0.06480814  1
  O  O18  1  0.30149336  0.23216269  0.16136703  1
  H  H19  1  0.25963063  0.19109091  0.31949829  1
  C  C20  1  0.18983243  0.20560024  0.47849490  1
  O  O21  1  0.18909277  0.16050663  0.44897463  1
  C  C22  1  0.47354391  0.08921412  0.28638886  1
  O  O23  1  0.35933894  0.08445925  0.36869442  1
  H  H24  1  0.15572365  0.12444069  0.08882943  1
  H  H25  1  0.47147117  0.14029986  0.12277748  1
  Zn  Zn26  1  0.31141433  0.24605078  0.00389837  1
  N  N27  1  0.49154026  0.03361305  0.28811084  1
  C  C28  1  0.48153234  0.07624264  0.01664645  1
  Zn  Zn29  1  0.04196272  0.21219915  0.02426696  1
  C  C30  1  0.26516204  0.23091028  0.35394453  1
  O  O31  1  0.01172808  0.17955871  0.49453166  1
  C  C32  1  0.23614864  0.24624829  0.43626682  1
  O  O33  1  0.38577198  0.19527793  0.00312108  1
  O  O34  1  0.02841205  0.10428690  0.04228481  1
  O  O35  1  0.26148516  0.09555306  0.93250317  1
  C  C36  1  0.14136250  0.04909368  0.90376450  1
  C  C37  1  0.08437744  0.04709916  0.94011835  1
  C  C38  1  0.42930086  0.12504267  0.61239059  1
  H  H39  1  0.16708923  0.08759158  0.90173797  1
  Zn  Zn40  1  0.24900366  0.02329890  0.70624423  1
  N  N41  1  0.30146304  0.08468973  0.76257130  1
  C  C42  1  0.33931401  0.11317097  0.69989216  1
  O  O43  1  0.38985474  0.13567940  0.89047404  1
  C  C44  1  0.42424022  0.18183957  0.60455513  1
  H  H45  1  0.39595989  0.04524904  0.66017703  1
  C  C46  1  0.06734502  0.10392738  0.98328443  1
  C  C47  1  0.38970191  0.08904427  0.65679824  1
  C  C48  1  0.32887984  0.17001720  0.68783938  1
  O  O49  1  0.49158759  0.04581173  0.59554966  1
  O  O50  1  0.15310332  0.22490507  0.53624180  1
  C  C51  1  0.04703883  0.08630652  0.58626778  1
  C  C52  1  0.05538149  0.03691684  0.62701216  1
  C  C53  1  0.37259611  0.20037235  0.64443301  1
  H  H54  1  0.28752660  0.19019337  0.71401399  1
  H  H55  1  0.48666208  0.14386717  0.78655359  1
  O  O56  1  0.14412460  0.02853047  0.53372900  1
  H  H57  1  0.26859867  0.10679481  0.79713756  1
  C  C58  1  0.48502342  0.09859757  0.58103450  1
  O  O59  1  0.09185999  0.14700937  0.95954885  1
  H  H60  1  0.08301776  0.10793533  0.54033791  1
  H  H61  1  0.45922590  0.20623225  0.56797961  1
  C  C62  1  0.41182907  0.17313461  0.93143630  1
  C  C63  1  0.46486094  0.20331139  0.89086633  1
  Zn  Zn64  1  0.33573367  0.05090186  0.89264107  1
  C  C65  1  0.01674938  0.01111150  0.69046150  1
  C  C66  1  0.11150674  0.00548025  0.59849545  1
  O  O67  1  0.24690756  0.18194018  0.95215337  1
  H  H68  1  0.00555072  0.00702451  0.97934807  1
  C  C69  1  0.48309728  0.24950088  0.94035831  1
  C  C70  1  0.24969471  0.13665970  0.98110671  1
  C  C71  1  0.04812868  0.00264076  0.94743700  1
  C  C72  1  0.26620718  0.35561317  0.06184583  1
  C  C73  1  0.24417440  0.29288819  0.48644063  1
  C  C74  1  0.20711237  0.40096661  0.18865762  1
  N  N75  1  0.14366480  0.44030673  0.30529781  1
  C  C76  1  0.18262562  0.30855038  0.14643381  1
  C  C77  1  0.13490411  0.34750891  0.29334931  1
  O  O78  1  0.29862858  0.39318072  0.06230577  1
  H  H79  1  0.22819590  0.43891682  0.18167615  1
  H  H80  1  0.34530108  0.34715299  0.31745290  1
  C  C81  1  0.28774066  0.32944672  0.44754947  1
  Zn  Zn82  1  0.05585581  0.46328560  0.28828344  1
  H  H83  1  0.10443382  0.34537655  0.35209378  1
  C  C84  1  0.16650651  0.39479563  0.26730153  1
  H  H85  1  0.16036538  0.47585051  0.28414489  1
  N  N86  1  0.02463144  0.41033867  0.19578469  1
  C  C87  1  0.14355842  0.30804041  0.22482848  1
  C  C88  1  0.30412778  0.27010224  0.31898287  1
  C  C89  1  0.21599796  0.35482343  0.13550838  1
  C  C90  1  0.31718947  0.31910854  0.35864334  1
  O  O91  1  0.38618800  0.26261505  0.21050430  1
  H  H92  1  0.18732165  0.27495251  0.09457563  1
  H  H93  1  0.06553943  0.39248887  0.18082833  1
  C  C94  1  0.33429894  0.25206688  0.22301983  1
  H  H95  1  0.01763896  0.30389624  0.15609555  1
  H  H96  1  0.41847259  0.27368164  0.39660902  1
  O  O97  1  0.27009069  0.31565934  0.00229768  1
  N  N98  1  0.00560632  0.46123677  0.41991764  1
  H  H99  1  0.06322309  0.37649821  0.02618585  1
  C  C100  1  0.10446531  0.25759439  0.23315124  1
  N  N101  1  0.45401040  0.25089519  0.40770090  1
  O  O102  1  0.07631838  0.25294705  0.30794202  1
  H  H103  1  0.31487833  0.40913052  0.46496100  1
  N  N104  1  0.07514665  0.48862886  0.00278851  1
  N  N105  1  0.29260549  0.37648146  0.49052116  1
  O  O106  1  0.27134325  0.42035077  0.75948522  1
  C  C107  1  0.19591903  0.43322921  0.87498936  1
  O  O108  1  0.07862870  0.49236676  0.53549047  1
  O  O109  1  0.13865425  0.27062770  0.88859818  1
  H  H110  1  0.20859354  0.35006895  0.83498963  1
  C  C111  1  0.13513578  0.36232174  0.92984799  1
  N  N112  1  0.06893284  0.39139944  0.70118597  1
  Zn  Zn113  1  0.01315786  0.46255919  0.72917912  1
  H  H114  1  0.33954081  0.48651150  0.59604441  1
  C  C115  1  0.14105164  0.34050893  0.61587434  1
  C  C116  1  0.24912263  0.45517312  0.81666811  1
  C  C117  1  0.12592048  0.39106177  0.68851140  1
  C  C118  1  0.18209114  0.37902673  0.87355878  1
  H  H119  1  0.17803772  0.47719303  0.57934706  1
  C  C120  1  0.05250535  0.34733138  0.64958416  1
  C  C121  1  0.11383981  0.45015545  0.97792172  1
  O  O122  1  0.36059782  0.26233919  0.64073033  1
  Zn  Zn123  1  0.25988711  0.40843635  0.61106708  1
  C  C124  1  0.09897648  0.39441842  0.98342409  1
  C  C125  1  0.11546727  0.30319000  0.93955272  1
  N  N126  1  0.08919562  0.31955516  0.59340774  1
  H  H127  1  0.45749564  0.26346532  0.99951862  1
  N  N128  1  0.17733464  0.37342861  0.65722917  1
  O  O129  1  0.27563834  0.28946891  0.72791732  1
  C  C130  1  0.31734701  0.27759172  0.68428067  1
  C  C131  1  0.16611613  0.47004222  0.93045732  1
  N  N132  1  0.29465420  0.48521554  0.57451256  1
  H  H133  1  0.46145708  0.32943298  0.55270118  1
  H  H134  1  0.00495505  0.34028060  0.85012358  1
  H  H135  1  0.21832734  0.29985480  0.55344692  1
  C  C136  1  0.02036592  0.46869630  0.51204505  1
  O  O137  1  0.07077940  0.29420471  0.99472621  1
  Zn  Zn138  1  0.06324095  0.25118487  0.50694860  1
  C  C139  1  0.13382346  0.71329973  0.16695227  1
  O  O140  1  0.31024552  0.68390337  0.48614091  1
  O  O141  1  0.09028315  0.54263646  0.29816035  1
  C  C142  1  0.09363578  0.65376631  0.32006583  1
  C  C143  1  0.13737358  0.65733074  0.15697888  1
  C  C144  1  0.08380699  0.74362177  0.41664517  1
  O  O145  1  0.04904675  0.72123636  0.46979533  1
  C  C146  1  0.11642156  0.63004762  0.23785021  1
  C  C147  1  0.11583817  0.56904538  0.23078364  1
  H  H148  1  0.14667077  0.73078278  0.02211998  1
  H  H149  1  0.16174926  0.63666181  0.09796421  1
  H  H150  1  0.07611657  0.62936053  0.37945205  1
  C  C151  1  0.09642862  0.70952300  0.32346875  1
  C  C152  1  0.31999675  0.74454538  0.43460203  1
  O  O153  1  0.14377300  0.54796054  0.16731072  1
  O  O154  1  0.21315165  0.69979218  0.46734383  1
  C  C155  1  0.11897022  0.74209191  0.25510718  1
  O  O156  1  0.43640096  0.73943437  0.16444312  1
  C  C157  1  0.25621768  0.67165106  0.48996634  1
  H  H158  1  0.08710485  0.52875700  0.01301437  1
  C  C159  1  0.49002462  0.73639108  0.17322253  1
  N  N160  1  0.13980102  0.74533462  0.08796435  1
  H  H161  1  0.32705596  0.59145197  0.53385158  1
  H  H162  1  0.02590905  0.71867524  0.61951762  1
  N  N163  1  0.04401757  0.52569337  0.78792980  1
  C  C164  1  0.14084185  0.69341051  0.69467481  1
  C  C165  1  0.15752002  0.55515997  0.53385866  1
  O  O166  1  0.18361935  0.67507419  0.73527671  1
  C  C167  1  0.04034187  0.58000366  0.75835143  1
  C  C168  1  0.08423869  0.66015880  0.69722131  1
  C  C169  1  0.09188564  0.61281664  0.74877174  1
  H  H170  1  0.13461036  0.60305724  0.77710799  1
  H  H171  1  0.18204501  0.51083967  0.93321648  1
  C  C172  1  0.03187304  0.68016436  0.65998517  1
  C  C173  1  0.25894821  0.52745834  0.55873339  1
  O  O174  1  0.14282895  0.74119234  0.65884647  1
  O  O175  1  0.40788082  0.51743129  0.61771306  1
  C  C176  1  0.28126579  0.58004750  0.53596527  1
  C  C177  1  0.19706860  0.51619275  0.55939298  1
  Zn  Zn178  1  0.00772239  0.50233924  0.91761589  1
  H  H179  1  0.08507951  0.50630644  0.79592534  1
  C  C180  1  0.44580788  0.54897765  0.58498457  1
  O  O181  1  0.05581132  0.57698046  0.50703356  1
  C  C182  1  0.09219069  0.54442263  0.52311167  1
  O  O183  1  0.43758552  0.57438104  0.50909385  1
  C  C184  1  0.17626353  0.60757497  0.51780246  1
  C  C185  1  0.23675247  0.61621561  0.51826329  1
  O  O186  1  0.00011244  0.58035091  0.98898231  1
  H  H187  1  0.00910449  0.67650819  0.98789318  1
  H  H188  1  0.47512404  0.50077796  0.74452816  1
  O  O189  1  0.26148203  0.50173183  0.80994496  1
  H  H190  1  0.14413218  0.64206108  0.50931048  1
  O  O191  1  0.17013288  0.84841029  0.03399651  1
  C  C192  1  0.19689019  0.87614686  0.09144775  1
  N  N193  1  0.34911776  0.84054377  0.33795646  1
  H  H194  1  0.44885622  0.87713167  0.41851861  1
  C  C195  1  0.26204498  0.98796178  0.38738584  1
  Zn  Zn196  1  0.08849311  0.80036177  0.06194072  1
  N  N197  1  0.38488179  0.93498203  0.21090348  1
  N  N198  1  0.07295051  0.86173373  0.17017359  1
  H  H199  1  0.27137291  0.93579515  0.20568237  1
  N  N200  1  0.27120471  0.77870214  0.42262019  1
  O  O201  1  0.44487102  0.98609639  0.05948294  1
  O  O202  1  0.17184607  0.90044689  0.16430234  1
  N  N203  1  0.09292653  0.94149269  0.25912732  1
  C  C204  1  0.38478243  0.88543105  0.06116659  1
  C  C205  1  0.29243129  0.91060307  0.15076423  1
  C  C206  1  0.26208230  0.87966951  0.08905709  1
  H  H207  1  0.45654843  0.83605612  0.24412391  1
  N  N208  1  0.20304839  0.99046888  0.39935852  1
  C  C209  1  0.35630188  0.91160531  0.14240438  1
  O  O210  1  0.10431699  0.78988383  0.43243020  1
  C  C211  1  0.02422827  0.87538969  0.21407242  1
  Zn  Zn212  1  0.37409676  0.92276617  0.34530599  1
  C  C213  1  0.03730331  0.93285073  0.27771496  1
  C  C214  1  0.10935564  0.90174844  0.19530503  1
  H  H215  1  0.43444504  0.88600732  0.04963160  1
  Zn  Zn216  1  0.46128977  0.96746550  0.20214621  1
  H  H217  1  0.12504659  0.78670552  0.26712024  1
  N  N218  1  0.31999404  0.98306973  0.40733770  1
  C  C219  1  0.37402564  0.79538904  0.37490289  1
  Zn  Zn220  1  0.48756011  0.96262494  0.40115674  1
  C  C221  1  0.30320638  0.81432447  0.37411144  1
  N  N222  1  0.43054062  0.91048914  0.45351577  1
  N  N223  1  0.37632455  0.75209100  0.42188076  1
  C  C224  1  0.29293509  0.98742008  0.49204548  1
  H  H225  1  0.34207976  0.85265510  0.49427388  1
  C  C226  1  0.29187510  0.84856092  0.01521490  1
  C  C227  1  0.35088889  0.85278343  0.00359855  1
  C  C228  1  0.20278117  0.99571365  0.49492570  1
  O  O229  1  0.23999116  0.84277148  0.57313097  1
  C  C230  1  0.12721484  0.95127563  0.86775640  1
  C  C231  1  0.43792009  0.92908231  0.63200240  1
  C  C232  1  0.41232694  0.90199328  0.55267252  1
  C  C233  1  0.07201954  0.95588130  0.90510597  1
  H  H234  1  0.13898221  0.91058104  0.84227156  1
  C  C235  1  0.35656376  0.87602488  0.55900076  1
  C  C236  1  0.41898700  0.96555388  0.79961182  1
  H  H237  1  0.31430987  0.91636872  0.78436760  1
  C  C238  1  0.32335967  0.88210267  0.64119387  1
  Zn  Zn239  1  0.18761087  0.77824801  0.52996583  1
  C  C240  1  0.40015159  0.93114322  0.71232021  1
  C  C241  1  0.34414724  0.90922571  0.72283706  1
  H  H242  1  0.02297694  0.96881129  0.71337404  1
  C  C243  1  0.38407247  0.81939045  0.92247112  1
  O  O244  1  0.05934623  0.86093572  0.89175064  1
  H  H245  1  0.21878650  0.95374406  0.78790026  1
  O  O246  1  0.23273168  0.86375140  0.72432666  1
  C  C247  1  0.25914142  0.86294276  0.65030564  1
  O  O248  1  0.46948687  0.97909199  0.80389425  1
  O  O249  1  0.36241671  0.78355625  0.87596623  1
  O  O250  1  0.11899586  0.96200177  0.63037720  1
  N  N251  1  0.21579558  0.99083797  0.82021902  1
  C  C252  1  0.03435559  0.90383858  0.90333023  1
  H  H253  1  0.48085803  0.94671445  0.63237139  1
  O  O254  1  0.43499643  0.83397341  0.91241598  1
  C  C255  1  0.16248108  0.99891712  0.86508266  1
  H  H256  1  0.26483705  0.82118651  0.97078530  1
  O  O257  1  0.37885798  0.97651834  0.86147074  1
  N  N258  1  0.25027571  0.99121401  0.55658004  1
  C  C259  1  0.71159748  0.07943764  0.07968125  1
  C  C260  1  0.54621924  0.05510689  0.27934709  1
  Zn  Zn261  1  0.77660512  0.15683799  0.38331727  1
  N  N262  1  0.65975591  0.02611744  0.45271072  1
  H  H263  1  0.54618397  0.19576139  0.39853928  1
  C  C264  1  0.83718162  0.03837546  0.20295721  1
  H  H265  1  0.75596441  0.11432605  0.23164317  1
  C  C266  1  0.54739735  0.15061882  0.03609377  1
  O  O267  1  0.96500578  0.21445159  0.11943189  1
  N  N268  1  0.76536384  0.09399471  0.29357631  1
  C  C269  1  0.55340732  0.12260094  0.28489262  1
  O  O270  1  0.60643983  0.22391212  0.08761019  1
  N  N271  1  0.81032594  0.22740397  0.37740860  1
  H  H272  1  0.83310066  0.05807059  0.13031365  1
  H  H273  1  0.78972089  0.02043157  0.44510439  1
  C  C274  1  0.54943466  0.23217066  0.44495431  1
  N  N275  1  0.59548371  0.08614939  0.27379078  1
  C  C276  1  0.55927724  0.20311626  0.09569561  1
  Zn  Zn277  1  0.68068922  0.07813254  0.33398653  1
  C  C278  1  0.80546647  0.05050801  0.28995751  1
  H  H279  1  0.83338157  0.22491950  0.31571123  1
  O  O280  1  0.64431009  0.16565439  0.43628259  1
  O  O281  1  0.87090685  0.22228009  0.14367513  1
  C  C282  1  0.80792291  0.01517408  0.37210680  1
  C  C283  1  0.91988693  0.24161662  0.14559257  1
  O  O284  1  0.74663554  0.07121144  0.03106702  1
  N  N285  1  0.50023974  0.13855756  0.29901784  1
  O  O286  1  0.51952939  0.22371448  0.14645914  1
  O  O287  1  0.90600261  0.00174182  0.04372403  1
  O  O288  1  0.92536601  0.18038065  0.56629928  1
  H  H289  1  0.62593194  0.15996027  0.95266367  1
  H  H290  1  0.90742285  0.10771132  0.67800918  1
  C  C291  1  0.96128000  0.03533434  0.70903721  1
  N  N292  1  0.77398495  0.03825423  0.63924752  1
  C  C293  1  0.77416547  0.08221711  0.57900098  1
  C  C294  1  0.63815226  0.04026083  0.54084114  1
  H  H295  1  0.61721060  0.19970374  0.68961694  1
  N  N296  1  0.60090751  0.04472646  0.61081614  1
  C  C297  1  0.72169310  0.14479319  0.60256597  1
  O  O298  1  0.52036211  0.12436705  0.53751724  1
  C  C299  1  0.95016743  0.08676586  0.66673633  1
  C  C300  1  0.56623692  0.08738831  0.91445948  1
  Zn  Zn301  1  0.60456450  0.10736966  0.71841148  1
  N  N302  1  0.58035590  0.18585865  0.71374471  1
  N  N303  1  0.59821152  0.07063562  0.83794336  1
  C  C304  1  0.73423579  0.07314906  0.67123647  1
  N  N305  1  0.69825089  0.11602052  0.67780208  1
  C  C306  1  0.55219893  0.02018892  0.57000512  1
  N  N307  1  0.91802285  0.01231925  0.76190668  1
  O  O308  1  0.90207415  0.20956973  0.86330240  1
  N  N309  1  0.76142305  0.12893093  0.53628612  1
  O  O310  1  0.68132719  0.19748359  0.57371865  1
  H  H311  1  0.50180223  0.02185971  0.90051344  1
  C  C312  1  0.54894682  0.21088351  0.78344633  1
  H  H313  1  0.59470066  0.03381028  0.81037972  1
  C  C314  1  0.58520666  0.13445659  0.96410647  1
  C  C315  1  0.51544379  0.05872017  0.93947482  1
  C  C316  1  0.97343185  0.16041165  0.55667790  1
  C  C317  1  0.64306419  0.19662940  0.50068037  1
  C  C318  1  0.99105302  0.10723323  0.60338965  1
  C  C319  1  0.50061354  0.18120297  0.82068631  1
  C  C320  1  0.59933918  0.24157252  0.50177374  1
  O  O321  1  0.99438101  0.23022762  0.88572749  1
  H  H322  1  0.74775900  0.24198579  0.53983025  1
  C  C323  1  0.93995848  0.24237260  0.87817694  1
  C  C324  1  0.92405937  0.30147166  0.17075993  1
  C  C325  1  0.87115066  0.37885082  0.22172720  1
  C  C326  1  0.86884419  0.32634426  0.19137363  1
  C  C327  1  0.95330201  0.44291381  0.43637261  1
  O  O328  1  0.76770241  0.36789027  0.25981356  1
  C  C329  1  0.92167184  0.40934454  0.22674338  1
  H  H330  1  0.92302363  0.45147402  0.25404239  1
  C  C331  1  0.82908243  0.25572554  0.45756847  1
  O  O332  1  0.79974242  0.44561513  0.28374665  1
  C  C333  1  0.80762890  0.39998130  0.25894587  1
  C  C334  1  0.97618590  0.38038309  0.20400839  1
  H  H335  1  0.82665059  0.30504695  0.20296085  1
  H  H336  1  0.91634453  0.27101873  0.38865972  1
  C  C337  1  0.97694953  0.32519888  0.17146971  1
  C  C338  1  0.88609492  0.27771299  0.45298880  1
  O  O339  1  0.99878229  0.30913214  0.47818127  1
  N  N340  1  0.90625363  0.42922454  0.47755008  1
  C  C341  1  0.50016996  0.26476493  0.46433034  1
  O  O342  1  0.79049505  0.36926759  0.00456626  1
  C  C343  1  0.87487871  0.40851020  0.92317327  1
  O  O344  1  0.98357884  0.33577011  0.62978735  1
  O  O345  1  0.59967709  0.37346245  0.70042229  1
  N  N346  1  0.95781205  0.44570653  0.85047686  1
  C  C347  1  0.92642603  0.30360196  0.90443233  1
  C  C348  1  0.81046681  0.29105949  0.61639690  1
  C  C349  1  0.50103691  0.30705581  0.53494791  1
  Zn  Zn350  1  0.61626924  0.42027131  0.83646364  1
  C  C351  1  0.96119279  0.34712752  0.87848124  1
  H  H352  1  0.92857599  0.47349384  0.83110559  1
  C  C353  1  0.56296344  0.26184960  0.82191168  1
  O  O354  1  0.71107639  0.29704363  0.68876626  1
  N  N355  1  0.57828533  0.48996574  0.84137309  1
  O  O356  1  0.60220041  0.34786027  0.90763454  1
  O  O357  1  0.50924511  0.38720583  0.67201556  1
  C  C358  1  0.93451177  0.39714046  0.89102215  1
  O  O359  1  0.87535574  0.43612466  0.64644183  1
  C  C360  1  0.78258221  0.44930726  0.77697520  1
  C  C361  1  0.55036193  0.33205233  0.93604494  1
  H  H362  1  0.79624354  0.41107732  0.74185831  1
  N  N363  1  0.98232445  0.45620766  0.58791959  1
  C  C364  1  0.87029309  0.31346349  0.93985173  1
  H  H365  1  0.64533913  0.28802692  0.61233759  1
  C  C366  1  0.78966227  0.26405212  0.53560073  1
  H  H367  1  0.70627791  0.38267183  0.85587989  1
  C  C368  1  0.73672308  0.46029841  0.84587029  1
  C  C369  1  0.76538142  0.29907519  0.69875548  1
  N  N370  1  0.69810708  0.42253976  0.87436653  1
  H  H371  1  0.59621193  0.28776369  0.79234931  1
  C  C372  1  0.55485062  0.36286842  0.65284018  1
  C  C373  1  0.60335448  0.28311437  0.56847856  1
  H  H374  1  0.85531028  0.45014344  0.92878116  1
  C  C375  1  0.86717823  0.30985740  0.62209355  1
  C  C376  1  0.55460973  0.31589302  0.57838638  1
  C  C377  1  0.92782418  0.43608838  0.56459689  1
  C  C378  1  0.84489458  0.36403929  0.95888288  1
  O  O379  1  0.78741894  0.31480302  0.77622469  1
  H  H380  1  0.84770207  0.27565294  0.96169334  1
  H  H381  1  0.88414895  0.33156310  0.68486641  1
  C  C382  1  0.52989619  0.27755050  0.90109753  1
  C  C383  1  0.96566785  0.31659198  0.54833507  1
  H  H384  1  0.76547423  0.37967207  0.94937765  1
  C  C385  1  0.90227441  0.30157861  0.53953004  1
  C  C386  1  0.81814845  0.49292105  0.76014145  1
  C  C387  1  0.86683640  0.48395322  0.68612498  1
  O  O388  1  0.52243431  0.35774970  0.99491037  1
  C  C389  1  0.95184459  0.64221006  0.09817761  1
  C  C390  1  0.92522122  0.65105009  0.18526657  1
  C  C391  1  0.96958128  0.73789774  0.08005986  1
  O  O392  1  0.84829073  0.68703831  0.34493159  1
  O  O393  1  0.93930532  0.54637408  0.09432015  1
  H  H394  1  0.90818757  0.61423859  0.22053480  1
  C  C395  1  0.91183326  0.70438294  0.21428182  1
  C  C396  1  0.97797827  0.68448425  0.04889702  1
  C  C397  1  0.87767809  0.71883479  0.30167487  1
  C  C398  1  0.96374253  0.58398264  0.05901056  1
  H  H399  1  0.60886818  0.73546905  0.19085596  1
  O  O400  1  0.51975600  0.69412366  0.16646831  1
  C  C401  1  0.93161302  0.74738562  0.15795638  1
  C  C402  1  0.72383205  0.51297822  0.87884358  1
  H  H403  1  0.83978134  0.58119493  0.77458283  1
  H  H404  1  0.94479684  0.58070168  0.74939779  1
  O  O405  1  0.77433664  0.64988372  0.83996864  1
  Zn  Zn406  1  0.77149706  0.66342445  0.69197411  1
  O  O407  1  0.89983744  0.51986612  0.66691377  1
  C  C408  1  0.74262008  0.61280116  0.87521320  1
  C  C409  1  0.98445978  0.60188557  0.73007810  1
  O  O410  1  0.77159156  0.72182853  0.57370370  1
  C  C411  1  0.81069692  0.54551887  0.79463053  1
  O  O412  1  0.86911807  0.64878620  0.68843887  1
  C  C413  1  0.61863391  0.55079214  0.72650597  1
  C  C414  1  0.76036038  0.55491557  0.84792619  1
  O  O415  1  0.70664347  0.62254354  0.93821011  1
  C  C416  1  0.91730436  0.67405584  0.67263429  1
  H  H417  1  0.68660148  0.52016853  0.92430381  1
  O  O418  1  0.70925570  0.60836936  0.63923075  1
  C  C419  1  0.98325616  0.64950287  0.68337359  1
  H  H420  1  0.66181727  0.55032822  0.75139938  1
  C  C421  1  0.55408339  0.57904522  0.59061074  1
  C  C422  1  0.57113543  0.51935069  0.75797799  1
  C  C423  1  0.60731579  0.58058215  0.64206542  1
  C  C424  1  0.65873663  0.61351959  0.60065564  1
  H  H425  1  0.54996077  0.59877124  0.52159312  1
  O  O426  1  0.91831157  0.71971774  0.64979383  1
  C  C427  1  0.50700584  0.55296182  0.63263906  1
  H  H428  1  0.82527337  0.73807939  0.74400463  1
  O  O429  1  0.65179662  0.64229695  0.53174680  1
  O  O430  1  0.86096242  0.74940582  0.93845458  1
  C  C431  1  0.51450748  0.52327841  0.71585522  1
  H  H432  1  0.60625281  0.50411800  0.89115179  1
  H  H433  1  0.55199934  0.95473887  0.26463842  1
  N  N434  1  0.99688586  0.78379565  0.03463285  1
  N  N435  1  0.52214817  0.92495858  0.27440357  1
  O  O436  1  0.84946355  0.88045557  0.43765084  1
  C  C437  1  0.83173143  0.96468046  0.36123436  1
  O  O438  1  0.89196427  0.91986555  0.09487207  1
  C  C439  1  0.62791735  0.81714143  0.23831428  1
  C  C440  1  0.85847146  0.94738544  0.27707147  1
  C  C441  1  0.85905349  0.98604844  0.20277270  1
  C  C442  1  0.69513721  0.80667022  0.25178092  1
  H  H443  1  0.91844260  0.79084463  0.17810093  1
  Zn  Zn444  1  0.94506595  0.86075114  0.03071868  1
  C  C445  1  0.61014725  0.99911229  0.46179698  1
  C  C446  1  0.88890174  0.97110453  0.10571582  1
  Zn  Zn447  1  0.80129759  0.80944584  0.36050108  1
  C  C448  1  0.60438856  0.86367400  0.27423227  1
  C  C449  1  0.54335836  0.87087567  0.26971627  1
  H  H450  1  0.87659326  0.90848118  0.27104591  1
  C  C451  1  0.82892605  0.92563291  0.45092076  1
  O  O452  1  0.72247374  0.84487427  0.29211315  1
  C  C453  1  0.59014600  0.77544044  0.20516300  1
  H  H454  1  0.63471128  0.89658017  0.30145679  1
  N  N455  1  0.99148320  0.90313032  0.27149472  1
  C  C456  1  0.52911816  0.78298098  0.20786991  1
  O  O457  1  0.87166855  0.77020369  0.32279429  1
  C  C458  1  0.50369998  0.82900451  0.24366827  1
  O  O459  1  0.71882631  0.76421955  0.23617795  1
  N  N460  1  0.55532614  0.98708376  0.49214489  1
  O  O461  1  0.75160360  0.79581445  0.49997802  1
  C  C462  1  0.81645464  0.86801139  0.82308466  1
  C  C463  1  0.82346740  0.81396116  0.82433813  1
  H  H464  1  0.75504451  0.95966979  0.67734679  1
  C  C465  1  0.81327105  0.78213258  0.74388911  1
  C  C466  1  0.77009676  0.85776411  0.66253434  1
  C  C467  1  0.85248115  0.79614900  0.91806485  1
  N  N468  1  0.77678904  0.94438302  0.73754222  1
  O  O469  1  0.97850865  0.90597060  0.90662886  1
  H  H470  1  0.75539439  0.87744946  0.59823775  1
  C  C471  1  0.78444537  0.80347713  0.66260055  1
  C  C472  1  0.77041652  0.77195605  0.57118558  1
  C  C473  1  0.78460075  0.89041421  0.74013576  1
  H  H474  1  0.92548894  0.98006505  0.80557032  1
  Zn  Zn475  1  0.83905550  0.99627037  0.72459756  1
  H  H476  1  0.82931851  0.89157196  0.88717829  1
  O  O477  1  0.80598023  0.94009861  0.52489746  1
  O  O478  1  0.86368216  0.83221257  0.98098691  1
  H  H479  1  0.99982339  0.77761335  0.96045494  1
