# generated using pymatgen
data_Zn3H24C42N14O9
_symmetry_space_group_name_H-M   'P 1'
_cell_length_a   15.51218936
_cell_length_b   15.58988915
_cell_length_c   27.47828204
_cell_angle_alpha   90.00000000
_cell_angle_beta   90.00000000
_cell_angle_gamma   90.00000000
_symmetry_Int_Tables_number   1
_chemical_formula_structural   Zn3H24C42N14O9
_chemical_formula_sum   'Zn18 H144 C252 N84 O54'
_cell_volume   6645.16397217
_cell_formula_units_Z   6
loop_
 _symmetry_equiv_pos_site_id
 _symmetry_equiv_pos_as_xyz
  1  'x, y, z'
loop_
 _atom_site_type_symbol
 _atom_site_label
 _atom_site_symmetry_multiplicity
 _atom_site_fract_x
 _atom_site_fract_y
 _atom_site_fract_z
 _atom_site_occupancy
  N  N0  1  0.26463486  0.42334913  0.07378881  1
  C  C1  1  0.19379334  0.42046749  0.04443366  1
  O  O2  1  0.17214114  0.43577939  0.16389448  1
  C  C3  1  0.00586269  0.13939867  0.01582008  1
  C  C4  1  0.18396080  0.13535799  0.03676414  1
  C  C5  1  0.15535449  0.36535210  0.17505757  1
  C  C6  1  0.12274538  0.13911809  0.07429254  1
  H  H7  1  0.14753712  0.14272643  0.11110052  1
  C  C8  1  0.11029026  0.34133778  0.22133563  1
  H  H9  1  0.11552540  0.20250981  0.21116465  1
  H  H10  1  0.21413045  0.33064074  0.11957833  1
  O  O11  1  0.18633081  0.29473954  0.14421267  1
  C  C12  1  0.41737218  0.48735816  0.24354608  1
  C  C13  1  0.07817272  0.03737947  0.23600217  1
  H  H14  1  0.25165133  0.13396598  0.04407493  1
  H  H15  1  0.30927619  0.37350849  0.07525751  1
  C  C16  1  0.14341176  0.47717003  0.01642776  1
  O  O17  1  0.45845088  0.43030791  0.15800887  1
  N  N18  1  0.12866876  0.39206234  0.01568328  1
  H  H19  1  0.11776678  0.01864069  0.20265238  1
  C  C20  1  0.03349034  0.14415995  0.06406692  1
  H  H21  1  0.28632318  0.47716351  0.09058329  1
  O  O22  1  0.38340379  0.30577336  0.05155730  1
  C  C23  1  0.42220767  0.26942525  0.01774372  1
  O  O24  1  0.30303454  0.19062249  0.22341012  1
  N  N25  1  0.00587646  0.12668077  0.15085594  1
  C  C26  1  0.47233737  0.43491340  0.21534887  1
  C  C27  1  0.10112124  0.25600934  0.23577051  1
  O  O28  1  0.48774640  0.22829780  0.02423928  1
  Zn  Zn29  1  0.00489726  0.33764150  0.02990510  1
  O  O30  1  0.43053863  0.16629394  0.24806052  1
  H  H31  1  0.09191633  0.47902092  0.23821030  1
  C  C32  1  0.36401374  0.20972178  0.24924506  1
  C  C33  1  0.26527119  0.37048647  0.33965341  1
  C  C34  1  0.33853646  0.38825467  0.36793856  1
  H  H35  1  0.05432008  0.16816199  0.29161401  1
  C  C36  1  0.30933070  0.18548127  0.39732417  1
  N  N37  1  0.23634038  0.21201596  0.41399706  1
  C  C38  1  0.25315374  0.41966958  0.48814392  1
  N  N39  1  0.39738052  0.46901184  0.43894925  1
  H  H40  1  0.22635640  0.27796246  0.41512514  1
  C  C41  1  0.35258531  0.27822597  0.28932401  1
  H  H42  1  0.20555887  0.40656114  0.34566643  1
  C  C43  1  0.33210077  0.42303328  0.42068304  1
  C  C44  1  0.06375832  0.39419136  0.29904515  1
  C  C45  1  0.37595699  0.15226754  0.38071392  1
  C  C46  1  0.41968506  0.35407890  0.35639883  1
  C  C47  1  0.08825942  0.41160927  0.25234276  1
  H  H48  1  0.08756297  0.36692967  0.45804682  1
  Zn  Zn49  1  0.11258108  0.16484988  0.40898887  1
  H  H50  1  0.21469436  0.30636053  0.27706611  1
  C  C51  1  0.00828191  0.29888826  0.36250009  1
  C  C52  1  0.05104938  0.30446522  0.31440466  1
  H  H53  1  0.49305774  0.27082098  0.30751800  1
  C  C54  1  0.27044011  0.31619029  0.29940007  1
  C  C55  1  0.04784376  0.01842047  0.32416811  1
  C  C56  1  0.10512855  0.01779856  0.28326250  1
  Zn  Zn57  1  0.16460482  0.01600199  0.46866257  1
  N  N58  1  0.25783038  0.40099988  0.44156002  1
  C  C59  1  0.42884930  0.29904591  0.31587053  1
  C  C60  1  0.38567045  0.02938570  0.36253433  1
  N  N61  1  0.09760903  0.03627344  0.40900836  1
  N  N62  1  0.42936051  0.09790365  0.35590277  1
  C  C63  1  0.07218482  0.23608353  0.28262757  1
  H  H64  1  0.05522336  0.44584320  0.32709896  1
  H  H65  1  0.00486205  0.25184864  0.49725058  1
  C  C66  1  0.37759684  0.48464313  0.48383154  1
  H  H67  1  0.47691594  0.36287712  0.38066098  1
  N  N68  1  0.27315629  0.06745653  0.49618887  1
  C  C69  1  0.10625634  0.34608855  0.49443728  1
  H  H70  1  0.48320366  0.47915082  0.31689755  1
  H  H71  1  0.43756785  0.06578552  0.58549283  1
  C  C72  1  0.11774554  0.05634649  0.71002998  1
  C  C73  1  0.35315292  0.35891943  0.67177253  1
  C  C74  1  0.38045987  0.25070860  0.55137800  1
  O  O75  1  0.36420142  0.15861941  0.53077400  1
  H  H76  1  0.46087586  0.30188547  0.74615101  1
  H  H77  1  0.42136230  0.38965960  0.60311321  1
  C  C78  1  0.41257661  0.00756914  0.60357652  1
  C  C79  1  0.03937787  0.04104840  0.63446756  1
  C  C80  1  0.19890409  0.35201368  0.56675256  1
  C  C81  1  0.08001501  0.00059939  0.67735459  1
  H  H82  1  0.17199643  0.25975364  0.62712371  1
  C  C83  1  0.31272283  0.20045877  0.63137114  1
  H  H84  1  0.25586147  0.37486093  0.58664937  1
  C  C85  1  0.31252402  0.29679327  0.69960074  1
  N  N86  1  0.31160979  0.46250643  0.51201693  1
  C  C87  1  0.35701172  0.26319539  0.60376156  1
  C  C88  1  0.08611262  0.25026965  0.56340778  1
  H  H89  1  0.11373991  0.12138834  0.69925222  1
  O  O90  1  0.07125584  0.13555868  0.62077441  1
  H  H91  1  0.26842239  0.16311339  0.70203877  1
  C  C92  1  0.29473048  0.21559594  0.68059758  1
  H  H93  1  0.36539918  0.42125926  0.68549123  1
  C  C94  1  0.04190083  0.17408054  0.58082430  1
  H  H95  1  0.23885616  0.19041796  0.50502189  1
  H  H96  1  0.27208331  0.15082809  0.61166351  1
  C  C97  1  0.38248032  0.34089322  0.62485489  1
  O  O98  1  0.41399719  0.30335635  0.52770995  1
  C  C99  1  0.15451795  0.28451969  0.58978528  1
  C  C100  1  0.18144888  0.37713147  0.51769999  1
  N  N101  1  0.20474792  0.37353879  0.74199777  1
  C  C102  1  0.29216165  0.14029050  0.50976481  1
  C  C103  1  0.05968082  0.28269946  0.51665412  1
  H  H104  1  0.38226656  0.08383806  0.74725454  1
  C  C105  1  0.27415251  0.33476301  0.82595753  1
  H  H106  1  0.27787592  0.35568286  0.99640074  1
  C  C107  1  0.38224580  0.25546536  0.88186822  1
  C  C108  1  0.34793090  0.05323367  0.82064065  1
  C  C109  1  0.17359353  0.40828526  0.78117966  1
  C  C110  1  0.30960525  0.31081773  0.87495215  1
  C  C111  1  0.37811182  0.27846225  0.96720219  1
  N  N112  1  0.31596511  0.29888528  0.78894319  1
  H  H113  1  0.21637738  0.39704292  0.91702413  1
  C  C114  1  0.30561897  0.33196817  0.96144702  1
  C  C115  1  0.22345673  0.08396823  0.86265224  1
  C  C116  1  0.25003069  0.07236683  0.81424414  1
  O  O117  1  0.28504622  0.09215885  0.94591010  1
  H  H118  1  0.40997611  0.22687443  0.84847196  1
  C  C119  1  0.15422504  0.12844400  0.98809405  1
  C  C120  1  0.45627931  0.44990712  0.86987059  1
  H  H121  1  0.06162314  0.43013995  0.84988544  1
  C  C122  1  0.06330350  0.14025451  0.97737647  1
  H  H123  1  0.49928840  0.02730850  0.92309760  1
  N  N124  1  0.20479041  0.38703586  0.82352374  1
  C  C125  1  0.20601555  0.11089936  0.94666283  1
  O  O126  1  0.16642456  0.11048015  0.90083690  1
  N  N127  1  0.37064977  0.04282293  0.86681339  1
  C  C128  1  0.30103314  0.06748652  0.88710008  1
  C  C129  1  0.41785629  0.23663652  0.92795125  1
  C  C130  1  0.26979372  0.35109054  0.91620079  1
  H  H131  1  0.03677078  0.14310856  0.94009613  1
  O  O132  1  0.05507280  0.38113375  0.91683907  1
  H  H133  1  0.46401257  0.04386244  0.77731229  1
  C  C134  1  0.09608636  0.46670315  0.77705923  1
  C  C135  1  0.46595176  0.46451622  0.91893899  1
  H  H136  1  0.48974400  0.40016041  0.85107827  1
  N  N137  1  0.48130689  0.46876313  0.77561198  1
  H  H138  1  0.05707269  0.38979594  0.95332307  1
  C  C139  1  0.03841710  0.46936202  0.81786645  1
  N  N140  1  0.20779514  0.09532678  0.77132184  1
  H  H141  1  0.47165626  0.19325095  0.92952008  1
  N  N142  1  0.39840562  0.05037693  0.77812413  1
  C  C143  1  0.27372365  0.32232535  0.75081511  1
  C  C144  1  0.16173655  0.03396915  0.75390060  1
  Zn  Zn145  1  0.34935252  0.87118560  0.05788773  1
  C  C146  1  0.39909746  0.63384375  0.06205026  1
  N  N147  1  0.46629494  0.67110074  0.16425476  1
  O  O148  1  0.21627962  0.93244714  0.11661164  1
  N  N149  1  0.13577804  0.65628614  0.06087533  1
  C  C150  1  0.26858718  0.68636730  0.10377246  1
  H  H151  1  0.22366832  0.59505987  0.22860465  1
  C  C152  1  0.17391246  0.89295715  0.03192786  1
  C  C153  1  0.35878092  0.67527673  0.10129512  1
  N  N154  1  0.05881376  0.94419843  0.07673035  1
  C  C155  1  0.21997997  0.65827881  0.06316573  1
  C  C156  1  0.22174551  0.90260246  0.07649226  1
  N  N157  1  0.39520549  0.80596539  0.13823817  1
  H  H158  1  0.34899636  0.54045784  0.18021889  1
  C  C159  1  0.34723543  0.53016802  0.21848808  1
  C  C160  1  0.45001200  0.82234133  0.17526424  1
  C  C161  1  0.00013806  0.62682354  0.23470120  1
  H  H162  1  0.23328137  0.71449147  0.13528437  1
  C  C163  1  0.45133679  0.94473821  0.03216545  1
  C  C164  1  0.41408599  0.72302906  0.14037083  1
  O  O165  1  0.37061846  0.59425255  0.02504825  1
  H  H166  1  0.24393247  0.62595928  0.02740088  1
  H  H167  1  0.05210974  0.67149612  0.23374987  1
  H  H168  1  0.47013347  0.63425491  0.06265394  1
  H  H169  1  0.09959729  0.93929578  0.10611662  1
  C  C170  1  0.11478289  0.63191795  0.01572148  1
  C  C171  1  0.08805331  0.92346354  0.03316989  1
  N  N172  1  0.02046681  0.80653384  0.20200313  1
  H  H173  1  0.00175103  0.97422932  0.08800763  1
  O  O174  1  0.49160393  0.50080424  0.02253399  1
  C  C175  1  0.28073012  0.56157469  0.24674132  1
  C  C176  1  0.05324119  0.81010439  0.23949340  1
  H  H177  1  0.04677541  0.93700868  0.00193899  1
  C  C178  1  0.15643991  0.57114197  0.47337330  1
  C  C179  1  0.40325059  0.92786874  0.32721943  1
  N  N180  1  0.25024040  0.92650733  0.47216751  1
  N  N181  1  0.14150704  0.90964817  0.37168967  1
  Zn  Zn182  1  0.26020552  0.88473738  0.40694864  1
  C  C183  1  0.37921323  0.71753939  0.39480216  1
  N  N184  1  0.36173209  0.79394466  0.41706484  1
  H  H185  1  0.36653580  0.53709801  0.36145132  1
  H  H186  1  0.32798291  0.70346936  0.36761583  1
  O  O187  1  0.42981320  0.87711579  0.30060694  1
  N  N188  1  0.03831863  0.61967940  0.36318668  1
  C  C189  1  0.11587313  0.86782397  0.32931724  1
  C  C190  1  0.03168225  0.66807968  0.46507241  1
  H  H191  1  0.20375503  0.52641186  0.45917587  1
  N  N192  1  0.35007150  0.95449198  0.36233725  1
  N  N193  1  0.16391827  0.80747558  0.31311430  1
  N  N194  1  0.44574187  0.66403369  0.39429749  1
  C  C195  1  0.27995134  0.56232781  0.29969114  1
  C  C196  1  0.20004354  0.58363614  0.32478146  1
  C  C197  1  0.36042816  0.53695185  0.32235355  1
  N  N198  1  0.13284120  0.59344900  0.29641524  1
  C  C199  1  0.10141329  0.81541242  0.28255831  1
  N  N200  1  0.45148327  0.89663040  0.46146670  1
  C  C201  1  0.43700652  0.81954378  0.43512527  1
  C  C202  1  0.05455418  0.60101737  0.31762885  1
  C  C203  1  0.10060671  0.61772435  0.44246768  1
  C  C204  1  0.11199363  0.60522686  0.38719434  1
  N  N205  1  0.19199083  0.58853721  0.37266254  1
  H  H206  1  0.42253314  0.64927949  0.48637510  1
  C  C207  1  0.09299825  0.98345317  0.36925833  1
  Zn  Zn208  1  0.35464118  0.96993585  0.49530217  1
  C  C209  1  0.42395669  0.50049355  0.29527566  1
  H  H210  1  0.17041195  0.99054295  0.28696109  1
  N  N211  1  0.06226049  0.86008832  0.65010687  1
  N  N212  1  0.09902564  0.91861800  0.51255846  1
  H  H213  1  0.35212835  0.64888623  0.55536555  1
  C  C214  1  0.39304772  0.56264521  0.71537415  1
  H  H215  1  0.23011305  0.80275340  0.66965384  1
  C  C216  1  0.15324890  0.57938055  0.52444758  1
  C  C217  1  0.29870369  0.68790249  0.69236816  1
  C  C218  1  0.35641221  0.88121822  0.59965149  1
  C  C219  1  0.06496054  0.77831691  0.66385892  1
  N  N220  1  0.07688490  0.73133571  0.70204856  1
  C  C221  1  0.37060963  0.60632164  0.62660187  1
  C  C222  1  0.03300964  0.67928077  0.51543524  1
  C  C223  1  0.10584125  0.66041274  0.59608677  1
  C  C224  1  0.33682342  0.66358822  0.59318717  1
  C  C225  1  0.45200192  0.52732270  0.51413935  1
  N  N226  1  0.30644920  0.81664457  0.57694575  1
  C  C227  1  0.27005675  0.74675068  0.65675740  1
  Zn  Zn228  1  0.21298833  0.85063746  0.52600998  1
  C  C229  1  0.08533037  0.78899616  0.73651874  1
  C  C230  1  0.29575566  0.74132768  0.60722422  1
  C  C231  1  0.09544168  0.63640685  0.54412391  1
  N  N232  1  0.45903747  0.51893983  0.69751163  1
  C  C233  1  0.45718478  0.82460005  0.67418490  1
  O  O234  1  0.09028845  0.85287032  0.54108613  1
  C  C235  1  0.41576072  0.88494802  0.64177170  1
  C  C236  1  0.35225731  0.61690531  0.67660476  1
  N  N237  1  0.45021733  0.96694488  0.64123722  1
  H  H238  1  0.41366837  0.55097450  0.61383820  1
  H  H239  1  0.19706077  0.53895743  0.54714483  1
  O  O240  1  0.05481040  0.72440480  0.61125844  1
  N  N241  1  0.09028407  0.87221302  0.73390804  1
  O  O242  1  0.15504323  0.62220920  0.62112367  1
  N  N243  1  0.36219323  0.95707773  0.57385993  1
  C  C244  1  0.08024783  0.90416738  0.68913230  1
  H  H245  1  0.28612647  0.69801831  0.73065486  1
  C  C246  1  0.46508493  0.61648757  0.51157539  1
  N  N247  1  0.49580581  0.78318085  0.70078966  1
  C  C248  1  0.00047467  0.55755174  0.72963332  1
  H  H249  1  0.03888261  0.99546781  0.60350258  1
  C  C250  1  0.07508031  0.50915783  0.73195214  1
  H  H251  1  0.11195908  0.50123478  0.69821995  1
  H  H252  1  0.37459961  0.93246150  0.96656291  1
  H  H253  1  0.16959312  0.97031066  0.77059429  1
  O  O254  1  0.10251422  0.57313164  0.93797806  1
  C  C255  1  0.09321229  0.68767941  0.88042646  1
  H  H256  1  0.03823219  0.86839521  0.81923900  1
  C  C257  1  0.10028972  0.75537008  0.78886449  1
  H  H258  1  0.05365784  0.81479554  0.90433231  1
  O  O259  1  0.09017846  0.70053465  0.96880090  1
  C  C260  1  0.06673655  0.77372341  0.87491939  1
  C  C261  1  0.35205384  0.57517456  0.87120853  1
  C  C262  1  0.06451197  0.80499158  0.82733263  1
  H  H263  1  0.15862800  0.85396836  0.95561712  1
  C  C264  1  0.12721483  0.63617949  0.84285748  1
  C  C265  1  0.09466518  0.65446475  0.93152461  1
  C  C266  1  0.34988825  0.57308843  0.92211034  1
  C  C267  1  0.13162331  0.66989777  0.79567752  1
  H  H268  1  0.15707875  0.56898081  0.85216308  1
  H  H269  1  0.31731670  0.62441846  0.84906697  1
  N  N270  1  0.36871868  0.56330367  0.76304520  1
  C  C271  1  0.41519139  0.51626727  0.79186550  1
  C  C272  1  0.40493466  0.51518365  0.84571595  1
  H  H273  1  0.30317361  0.61377155  0.94281138  1
  C  C274  1  0.43872703  0.53577382  0.99897882  1
  C  C275  1  0.41543675  0.52715469  0.94722266  1
  C  C276  1  0.43419251  0.96041470  0.98373227  1
  C  C277  1  0.12188138  0.56331977  0.99679230  1
  H  H278  1  0.14723413  0.63563866  0.76208810  1
  C  C279  1  0.20506763  0.85283441  0.98625229  1
  O  O280  1  0.27334471  0.82439967  0.97576969  1
  Zn  Zn281  1  0.65990419  0.28011455  0.11858347  1
  N  N282  1  0.70096535  0.17573547  0.09464749  1
  O  O283  1  0.55798996  0.05732510  0.16606589  1
  N  N284  1  0.89006192  0.11271114  0.08326325  1
  N  N285  1  0.83660395  0.31254655  0.20161410  1
  H  H286  1  0.65692353  0.17846146  0.06449943  1
  N  N287  1  0.67498430  0.27072566  0.19544493  1
  H  H288  1  0.95412320  0.32549696  0.24315088  1
  N  N289  1  0.98198515  0.33870820  0.09947825  1
  N  N290  1  0.76220450  0.31826066  0.09332066  1
  C  C291  1  0.61843735  0.23235397  0.22689849  1
  H  H292  1  0.72654007  0.15352255  0.12767070  1
  C  C293  1  0.75558765  0.28603884  0.21848814  1
  C  C294  1  0.86153376  0.04964733  0.11322684  1
  H  H295  1  0.63770300  0.04418705  0.05623345  1
  H  H296  1  0.55739422  0.20695940  0.20951681  1
  Zn  Zn297  1  0.81379571  0.21813519  0.05869191  1
  C  C298  1  0.95412791  0.07927843  0.17675350  1
  Zn  Zn299  1  0.86643277  0.33758050  0.13042226  1
  H  H300  1  0.79092890  0.04635999  0.20096075  1
  O  O301  1  0.53187907  0.39970698  0.23411434  1
  Zn  Zn302  1  0.78755968  0.40092583  0.03644731  1
  N  N303  1  0.55471208  0.34141198  0.10928723  1
  N  N304  1  0.89248336  0.32446477  0.06116948  1
  C  C305  1  0.96911140  0.13273315  0.10665711  1
  C  C306  1  0.51379968  0.38321093  0.13582271  1
  N  N307  1  0.88988311  0.02629662  0.15934331  1
  C  C308  1  0.58112820  0.01374443  0.03916819  1
  H  H309  1  0.52583113  0.33965494  0.07423904  1
  C  C310  1  0.88465073  0.31302747  0.24174591  1
  H  H311  1  0.93582064  0.13414394  0.00839938  1
  H  H312  1  0.85183297  0.01196679  0.02100254  1
  C  C313  1  0.78719570  0.00062162  0.09157483  1
  C  C314  1  0.99245255  0.06767660  0.22844477  1
  H  H315  1  0.99918619  0.27529498  0.10833442  1
  C  C316  1  0.50399224  0.02739281  0.18259770  1
  H  H317  1  0.66933313  0.47578060  0.23939748  1
  H  H318  1  0.80554866  0.46077871  0.24966657  1
  C  C319  1  0.89873456  0.07537817  0.43242988  1
  N  N320  1  0.69202783  0.21359089  0.34729949  1
  N  N321  1  0.83901417  0.28657874  0.28216332  1
  H  H322  1  0.96500689  0.06312493  0.41946994  1
  N  N323  1  0.71055170  0.03783157  0.25137082  1
  H  H324  1  0.75008144  0.24088794  0.35891329  1
  H  H325  1  0.91916779  0.06424876  0.34719852  1
  N  N326  1  0.97868373  0.37300935  0.37911060  1
  C  C327  1  0.92697294  0.23685915  0.42364511  1
  O  O328  1  0.69597550  0.42075923  0.31810993  1
  N  N329  1  0.60872043  0.20859245  0.27203142  1
  H  H330  1  0.64634718  0.23233968  0.37371803  1
  C  C331  1  0.67958074  0.23230107  0.29630110  1
  H  H332  1  0.86706197  0.29437594  0.31541085  1
  Zn  Zn333  1  0.52876028  0.11160485  0.30679735  1
  C  C334  1  0.74839032  0.03679723  0.45693713  1
  O  O335  1  0.62013104  0.32409827  0.48684491  1
  C  C336  1  0.78134247  0.18548157  0.44810489  1
  C  C337  1  0.86838900  0.16136293  0.43565835  1
  C  C338  1  0.92715728  0.37355842  0.41841226  1
  O  O339  1  0.57015506  0.25482771  0.41730062  1
  C  C340  1  0.71922782  0.12172716  0.45720123  1
  C  C341  1  0.88882684  0.45867302  0.43900130  1
  C  C342  1  0.93484245  0.07568034  0.26907636  1
  N  N343  1  0.89800691  0.30516119  0.44243791  1
  H  H344  1  0.75781737  0.25305175  0.44405074  1
  C  C345  1  0.75596856  0.26551423  0.27085109  1
  H  H346  1  0.64956407  0.13865081  0.46117877  1
  N  N347  1  0.99380318  0.22308665  0.38740527  1
  H  H348  1  0.80131238  0.47724658  0.37467634  1
  C  C349  1  0.59476828  0.29118135  0.45264981  1
  C  C350  1  0.96024539  0.04915422  0.31587302  1
  C  C351  1  0.83634136  0.01572428  0.44613732  1
  O  O352  1  0.64068812  0.49019319  0.38136373  1
  C  C353  1  0.65971024  0.48174431  0.33734627  1
  N  N354  1  0.61211380  0.00033585  0.31519858  1
  C  C355  1  0.91842235  0.48831564  0.48529900  1
  H  H356  1  0.87050336  0.09890400  0.26178075  1
  H  H357  1  0.68727496  0.08104758  0.54555343  1
  C  C358  1  0.65365142  0.31289404  0.66033474  1
  C  C359  1  0.64548867  0.08115526  0.57870510  1
  O  O360  1  0.83919455  0.23146733  0.73345686  1
  C  C361  1  0.50994915  0.47835522  0.54232699  1
  C  C362  1  0.58208661  0.41934691  0.71539939  1
  H  H363  1  0.65915816  0.28046395  0.62419375  1
  O  O364  1  0.59023724  0.13514718  0.57895826  1
  H  H365  1  0.97188681  0.06714682  0.63927183  1
  C  C366  1  0.71272027  0.29815937  0.70001779  1
  C  C367  1  0.77688683  0.23179193  0.69042047  1
  O  O368  1  0.78893321  0.18789022  0.65587324  1
  O  O369  1  0.98192595  0.14954623  0.55561123  1
  H  H370  1  0.80568765  0.11144044  0.56405359  1
  C  C371  1  0.58410140  0.36589705  0.67350890  1
  N  N372  1  0.83508593  0.05559829  0.55437304  1
  H  H373  1  0.89590847  0.07617298  0.54281503  1
  H  H374  1  0.87927305  0.18944896  0.72133448  1
  C  C375  1  0.71835625  0.35475163  0.74031063  1
  N  N376  1  0.66157493  0.01960722  0.61330451  1
  H  H377  1  0.53101364  0.36973213  0.64667149  1
  N  N378  1  0.59019939  0.04789210  0.73532371  1
  H  H379  1  0.97090126  0.45413868  0.50400107  1
  N  N380  1  0.51562958  0.18510911  0.73098318  1
  H  H381  1  0.61809090  0.48295886  0.59165110  1
  C  C382  1  0.65404438  0.41513607  0.74761640  1
  H  H383  1  0.51020486  0.41001456  0.54006558  1
  C  C384  1  0.50283182  0.47153463  0.72924085  1
  C  C385  1  0.63930178  0.07764592  0.96032765  1
  C  C386  1  0.86244728  0.19778527  0.90928400  1
  C  C387  1  0.57430013  0.02864478  0.98804852  1
  N  N388  1  0.80014062  0.13577823  0.91439009  1
  C  C389  1  0.51514539  0.25587005  0.75815407  1
  N  N390  1  0.82895612  0.20252683  0.98681879  1
  C  C391  1  0.98425420  0.32274132  0.91804229  1
  C  C392  1  0.77967832  0.14356977  0.96219805  1
  C  C393  1  0.88674342  0.24777354  0.95339943  1
  C  C394  1  0.61946729  0.14671855  0.79645017  1
  H  H395  1  0.83921862  0.13655791  0.81879278  1
  C  C396  1  0.90476177  0.22888301  0.86424153  1
  O  O397  1  0.63113171  0.09243345  0.91781355  1
  H  H398  1  0.66169805  0.43585587  0.85808976  1
  N  N399  1  0.66109856  0.06936863  0.80900967  1
  N  N400  1  0.96198807  0.28971010  0.87333034  1
  Zn  Zn401  1  0.75082165  0.04469555  0.86010942  1
  H  H402  1  0.68264242  0.29641045  0.88177693  1
  O  O403  1  0.88885578  0.48160001  0.99045265  1
  H  H404  1  0.90192891  0.20226230  0.78315725  1
  C  C405  1  0.61487921  0.22986437  0.81990728  1
  H  H406  1  0.69923893  0.18848107  0.87299931  1
  N  N407  1  0.88258638  0.18990511  0.82053924  1
  N  N408  1  0.66498991  0.24295594  0.86190764  1
  N  N409  1  0.95366060  0.29677919  0.96184445  1
  N  N410  1  0.55383301  0.27771846  0.79979302  1
  C  C411  1  0.68349075  0.44403100  0.94863445  1
  O  O412  1  0.70756807  0.10239469  0.98501921  1
  O  O413  1  0.69148455  0.37384581  0.93163453  1
  O  O414  1  0.92160630  0.02014477  0.95713592  1
  H  H415  1  0.66075110  0.45752011  0.77864748  1
  C  C416  1  0.50030521  0.00923638  0.96181789  1
  H  H417  1  0.51076817  0.42393449  0.93918856  1
  H  H418  1  0.77203770  0.35048287  0.76676467  1
  C  C419  1  0.64014586  0.01581892  0.77419381  1
  O  O420  1  0.70013897  0.46150112  0.99380309  1
  C  C421  1  0.56739986  0.13206896  0.75109071  1
  H  H422  1  0.75009534  0.59374142  0.08010979  1
  C  C423  1  0.75111566  0.91283623  0.02287921  1
  H  H424  1  0.70660400  0.97889529  0.15560927  1
  N  N425  1  0.50299476  0.80452167  0.20663598  1
  C  C426  1  0.94348983  0.61226527  0.19714303  1
  C  C427  1  0.77241707  0.99941855  0.22949611  1
  C  C428  1  0.82007036  0.59327454  0.07259494  1
  C  C429  1  0.82708274  0.54183138  0.15618248  1
  C  C430  1  0.63152838  0.79336685  0.02913377  1
  N  N431  1  0.81451138  0.92077340  0.23465797  1
  Zn  Zn432  1  0.86049547  0.74147784  0.05782963  1
  H  H433  1  0.83588167  0.87120796  0.10725568  1
  C  C434  1  0.55749514  0.66518349  0.23392481  1
  C  C435  1  0.71905847  0.95856868  0.11735723  1
  C  C436  1  0.66883279  0.89149414  0.09722262  1
  Zn  Zn437  1  0.91308899  0.88179090  0.18093929  1
  C  C438  1  0.87711643  0.55059748  0.20071052  1
  O  O439  1  0.87139518  0.57420609  0.10910792  1
  C  C440  1  0.68587970  0.86994332  0.04890946  1
  O  O441  1  0.75758651  0.51161422  0.15319959  1
  O  O442  1  0.59854070  0.74115161  0.05573254  1
  H  H443  1  0.61202470  0.86047799  0.11622534  1
  N  N444  1  0.88897493  0.83303365  0.11300418  1
  H  H445  1  0.59700536  0.57113241  0.18172177  1
  H  H446  1  0.94470013  0.85514547  0.09793797  1
  C  C447  1  0.59895515  0.58878484  0.21935930  1
  C  C448  1  0.84583876  0.61668785  0.02298290  1
  C  C449  1  0.51790306  0.96574977  0.06367775  1
  H  H450  1  0.95311041  0.64665211  0.16173943  1
  H  H451  1  0.52081577  0.94670451  0.10403145  1
  C  C452  1  0.50187610  0.71938335  0.19702257  1
  C  C453  1  0.80380796  0.97692529  0.04313040  1
  C  C454  1  0.85605027  0.50911230  0.24641335  1
  C  C455  1  0.80031005  0.58216283  0.42773000  1
  C  C456  1  0.78707116  0.86452458  0.27005394  1
  H  H457  1  0.61132530  0.65096694  0.45821755  1
  N  N458  1  0.58941150  0.62923555  0.42435133  1
  H  H459  1  0.79884123  0.74072530  0.30072692  1
  H  H460  1  0.59441087  0.56352497  0.42044707  1
  H  H461  1  0.75765314  0.62064805  0.40517897  1
  C  C462  1  0.90797533  0.53442518  0.28537256  1
  N  N463  1  0.66277432  0.86406842  0.33509090  1
  C  C464  1  0.51650279  0.68224063  0.42071489  1
  O  O465  1  0.73471936  0.73646742  0.45800143  1
  C  C466  1  0.55443816  0.68438324  0.28439198  1
  C  C467  1  0.62444413  0.54913797  0.30097928  1
  C  C468  1  0.58404316  0.62398085  0.31687407  1
  C  C469  1  0.60780840  0.92629451  0.34509443  1
  C  C470  1  0.91708299  0.85011144  0.38909121  1
  C  C471  1  0.51925524  0.76805901  0.44168693  1
  O  O472  1  0.95323765  0.84911720  0.42197745  1
  H  H473  1  0.57515395  0.63636070  0.35547886  1
  O  O474  1  0.60448858  0.97767999  0.46862968  1
  N  N475  1  0.57510433  0.80644144  0.47268299  1
  C  C476  1  0.68740987  0.96691362  0.46906050  1
  C  C477  1  0.71413647  0.89704254  0.29758514  1
  O  O478  1  0.72171522  0.89688189  0.47507006  1
  H  H479  1  0.52051234  0.74124860  0.29628376  1
  C  C480  1  0.68218366  0.98270976  0.28402811  1
  C  C481  1  0.82717794  0.60957777  0.47345286  1
  C  C482  1  0.63985377  0.53414563  0.25255731  1
  C  C483  1  0.54048402  0.89018920  0.47951835  1
  H  H484  1  0.72314209  0.79232526  0.47492458  1
  H  H485  1  0.84536393  0.94856402  0.44126268  1
  H  H486  1  0.55648422  0.92699924  0.37370044  1
  N  N487  1  0.82306261  0.78390067  0.27674874  1
  H  H488  1  0.88532526  0.51734466  0.32187015  1
  H  H489  1  0.98097003  0.69022925  0.44202356  1
  C  C490  1  0.82729645  0.50172215  0.41022505  1
  C  C491  1  0.98076543  0.58870713  0.28081859  1
  C  C492  1  0.79160491  0.69428618  0.49032431  1
  H  H493  1  0.87827158  0.76334329  0.25875651  1
  O  O494  1  0.85902042  0.66476690  0.72588917  1
  Zn  Zn495  1  0.97852618  0.89713203  0.54554522  1
  O  O496  1  0.68715750  0.63514818  0.62745205  1
  H  H497  1  0.67045391  0.78281753  0.61190740  1
  O  O498  1  0.61819094  0.76195119  0.59883530  1
  N  N499  1  0.78704133  0.82176630  0.63891695  1
  C  C500  1  0.57032814  0.51986501  0.57193115  1
  C  C501  1  0.73289306  0.97308876  0.61009701  1
  C  C502  1  0.73236170  0.88741695  0.64096006  1
  Zn  Zn503  1  0.58152143  0.98942719  0.66270233  1
  Zn  Zn504  1  0.62485275  0.79729806  0.70809617  1
  H  H505  1  0.90567361  0.58887407  0.54116222  1
  N  N506  1  0.66281098  0.88759485  0.66626669  1
  N  N507  1  0.86902124  0.91489694  0.57978238  1
  C  C508  1  0.83947640  0.85898606  0.60963799  1
  H  H509  1  0.53868045  0.90200001  0.52169066  1
  O  O510  1  0.81496170  0.72843329  0.52676902  1
  C  C511  1  0.63428216  0.66427775  0.60189081  1
  C  C512  1  0.57401434  0.61133237  0.57347238  1
  O  O513  1  0.86721091  0.96590207  0.73313732  1
  C  C514  1  0.81401621  0.98485222  0.58367417  1
  H  H515  1  0.98299168  0.71793172  0.53437044  1
  H  H516  1  0.98149065  0.59147400  0.69616174  1
  C  C517  1  0.88678513  0.56565722  0.50358948  1
  H  H518  1  0.52674682  0.73181244  0.54012591  1
  C  C519  1  0.51952465  0.66010539  0.54280380  1
  H  H520  1  0.81482599  0.70447756  0.73640942  1
  N  N521  1  0.90961526  0.87366100  0.92598778  1
  C  C522  1  0.94370477  0.56011065  0.77044811  1
  H  H523  1  0.67512323  0.95241573  0.77359953  1
  C  C524  1  0.62774699  0.59825232  0.93778102  1
  C  C525  1  0.64562837  0.52101014  0.91637706  1
  N  N526  1  0.69473501  0.75894390  0.76331480  1
  C  C527  1  0.85234200  0.87753136  0.89191442  1
  C  C528  1  0.76165622  0.85936054  0.82610119  1
  H  H529  1  0.85836345  0.80710111  0.88544695  1
  N  N530  1  0.79169945  0.91784704  0.86061800  1
  C  C531  1  0.90669694  0.95639769  0.93637587  1
  C  C532  1  0.73307510  0.80959191  0.79556034  1
  O  O533  1  0.82498099  0.72238643  0.95883851  1
  C  C534  1  0.86083509  0.61009819  0.76930744  1
  H  H535  1  0.55144695  0.71988211  0.92025401  1
  H  H536  1  0.75905114  0.89196240  0.98464205  1
  H  H537  1  0.95917950  0.57575518  0.97545927  1
  C  C538  1  0.58401561  0.65936399  0.90559939  1
  C  C539  1  0.58498921  0.63235645  0.85851322  1
  H  H540  1  0.66087630  0.70551342  0.77269305  1
  C  C541  1  0.61334510  0.56110161  0.83270476  1
  O  O542  1  0.80468396  0.61266528  0.79886793  1
  H  H543  1  0.60967449  0.54912275  0.79212044  1
  O  O544  1  0.63312065  0.78600764  0.98460057  1
  C  C545  1  0.89463366  0.55743384  0.99390484  1
  C  C546  1  0.81170394  0.68969748  0.99604835  1
  H  H547  1  0.63086353  0.60574416  0.97770751  1
  H  H548  1  0.90842807  0.51915697  0.83906374  1
  C  C549  1  0.95935686  0.51201611  0.81228515  1
  C  C550  1  0.63994383  0.50025319  0.86737140  1
  C  C551  1  0.92222769  0.98978455  0.75162590  1
