# generated using pymatgen
data_ZnH7C15(NO2)2
_symmetry_space_group_name_H-M   'P 1'
_cell_length_a   22.25297106
_cell_length_b   16.54638671
_cell_length_c   15.20673297
_cell_angle_alpha   90.00000000
_cell_angle_beta   90.00000000
_cell_angle_gamma   90.00000000
_symmetry_Int_Tables_number   1
_chemical_formula_structural   ZnH7C15(NO2)2
_chemical_formula_sum   'Zn16 H112 C240 N32 O64'
_cell_volume   5599.21434321
_cell_formula_units_Z   16
loop_
 _symmetry_equiv_pos_site_id
 _symmetry_equiv_pos_as_xyz
  1  'x, y, z'
loop_
 _atom_site_type_symbol
 _atom_site_label
 _atom_site_symmetry_multiplicity
 _atom_site_fract_x
 _atom_site_fract_y
 _atom_site_fract_z
 _atom_site_occupancy
  C  C0  1  0.36334742  0.03935260  0.37996448  1
  C  C1  1  0.07616011  0.20727182  0.36687604  1
  H  H2  1  0.30743893  0.06916954  0.13254122  1
  C  C3  1  0.03362806  0.06981963  0.19606157  1
  N  N4  1  0.29979594  0.16407901  0.41238433  1
  O  O5  1  0.07176817  0.02857827  0.24000749  1
  Zn  Zn6  1  0.47821501  0.01880467  0.47354534  1
  O  O7  1  0.35122344  0.03702202  0.30197727  1
  O  O8  1  0.16874798  0.17829059  0.11105641  1
  C  C9  1  0.20654522  0.18437815  0.17027405  1
  C  C10  1  0.25028674  0.03010650  0.02297298  1
  C  C11  1  0.03177910  0.20744181  0.28882005  1
  C  C12  1  0.01729205  0.15318040  0.22081486  1
  O  O13  1  0.09719995  0.14162217  0.39718444  1
  O  O14  1  0.19590820  0.16549662  0.24979127  1
  Zn  Zn15  1  0.15158566  0.06716865  0.31185747  1
  C  C16  1  0.33706925  0.10574818  0.44501499  1
  C  C17  1  0.26839203  0.21814206  0.15413021  1
  H  H18  1  0.22715648  0.08867149  0.02228673  1
  H  H19  1  0.05089201  0.03333012  0.46878344  1
  O  O20  1  0.01243808  0.04627315  0.12322797  1
  C  C21  1  0.29090066  0.21089237  0.48334129  1
  C  C22  1  0.29493079  0.01856500  0.08463903  1
  C  C23  1  0.29899113  0.24157932  0.07501515  1
  C  C24  1  0.49407747  0.21284658  0.01580105  1
  O  O25  1  0.46871356  0.21345112  0.08419752  1
  C  C26  1  0.00385536  0.01503338  0.46812343  1
  N  N27  1  0.30082836  0.23660409  0.22427597  1
  C  C28  1  0.19288706  0.08063074  0.60825257  1
  O  O29  1  0.40055652  0.11679251  0.67962675  1
  C  C30  1  0.10739344  0.08981882  0.86210461  1
  C  C31  1  0.07338192  0.17099095  0.87569741  1
  C  C32  1  0.07758390  0.01306354  0.70612473  1
  C  C33  1  0.39617032  0.08900576  0.60605149  1
  O  O34  1  0.05435313  0.21283395  0.81923204  1
  O  O35  1  0.43029057  0.02886118  0.58556457  1
  C  C36  1  0.11498363  0.02814838  0.79485473  1
  C  C37  1  0.16287667  0.14699047  0.57232955  1
  O  O38  1  0.07204829  0.19547171  0.96006341  1
  N  N39  1  0.32286689  0.19022575  0.55637756  1
  H  H40  1  0.26761279  0.16003070  0.79107024  1
  H  H41  1  0.25585149  0.03140701  0.70504184  1
  N  N42  1  0.14438691  0.07074137  0.92639554  1
  C  C43  1  0.23361132  0.08566433  0.68314413  1
  O  O44  1  0.23281346  0.21512989  0.94894333  1
  C  C45  1  0.34906460  0.12270605  0.53578765  1
  C  C46  1  0.16686866  0.22324132  0.61976102  1
  C  C47  1  0.23849756  0.15853121  0.73047856  1
  H  H48  1  0.46066689  0.22959544  0.64846427  1
  O  O49  1  0.04804907  0.06630545  0.67175209  1
  H  H50  1  0.13629853  0.13795330  0.51398963  1
  C  C51  1  0.20165166  0.22514158  0.70364259  1
  C  C52  1  0.28699109  0.23199804  0.97145814  1
  C  C53  1  0.17962791  0.00553044  0.89548948  1
  H  H54  1  0.01241173  0.19205634  0.67699919  1
  O  O55  1  0.32654375  0.24235189  0.92122135  1
  C  C56  1  0.39286098  0.32311019  0.24482305  1
  C  C57  1  0.21194736  0.38081658  0.38603747  1
  C  C58  1  0.49013573  0.48665615  0.48442179  1
  C  C59  1  0.20614382  0.45410651  0.04173511  1
  C  C60  1  0.44053556  0.36858202  0.20238588  1
  O  O61  1  0.11108156  0.33695126  0.08846059  1
  H  H62  1  0.19996218  0.40037182  0.32027936  1
  C  C63  1  0.41635428  0.38149329  0.38860411  1
  C  C64  1  0.38199628  0.32688977  0.33521810  1
  H  H65  1  0.34224024  0.29505924  0.36113306  1
  C  C66  1  0.18660116  0.42635730  0.12746716  1
  Zn  Zn67  1  0.05399404  0.39071542  0.31395571  1
  O  O68  1  0.08500204  0.26924570  0.41229023  1
  O  O69  1  0.12450783  0.35288601  0.22952797  1
  N  N70  1  0.01053100  0.28620717  0.26960436  1
  C  C71  1  0.47644920  0.41851578  0.25039977  1
  O  O72  1  0.37924451  0.41800973  0.03766311  1
  C  C73  1  0.25984188  0.29165422  0.48402353  1
  H  H74  1  0.44884813  0.35667093  0.12973974  1
  C  C75  1  0.23170846  0.30237394  0.39859659  1
  C  C76  1  0.13952126  0.36801085  0.15118992  1
  C  C77  1  0.46614926  0.42391353  0.34493225  1
  N  N78  1  0.22011193  0.46486441  0.18601217  1
  C  C79  1  0.21070829  0.44029218  0.45560118  1
  C  C80  1  0.40075909  0.40380375  0.47525462  1
  N  N81  1  0.35164460  0.27069368  0.09925565  1
  C  C82  1  0.35134572  0.27101199  0.18904439  1
  N  N83  1  0.01929598  0.47766526  0.39841400  1
  H  H84  1  0.23359083  0.25512777  0.34499787  1
  Zn  Zn85  1  0.41927493  0.46922577  0.78601710  1
  C  C86  1  0.26762584  0.34586266  0.55634769  1
  C  C87  1  0.16619479  0.36031822  0.73689285  1
  C  C88  1  0.19472345  0.42991787  0.94301977  1
  O  O89  1  0.22457203  0.46614027  0.88840115  1
  H  H90  1  0.15729404  0.41101640  0.78110464  1
  H  H91  1  0.11565767  0.28972055  0.52837392  1
  C  C92  1  0.13821768  0.36584282  0.65077637  1
  N  N93  1  0.45587764  0.36773075  0.84580757  1
  O  O94  1  0.15845365  0.37596551  0.91861493  1
  H  H95  1  0.28457088  0.32478661  0.62163334  1
  C  C96  1  0.13866720  0.29753745  0.59620528  1
  C  C97  1  0.48359509  0.28158438  0.94489679  1
  C  C98  1  0.20142463  0.29436526  0.76031274  1
  O  O99  1  0.37073848  0.45784496  0.90381640  1
  H  H100  1  0.21790093  0.28922272  0.82946712  1
  H  H101  1  0.11461874  0.42479789  0.63611914  1
  C  C102  1  0.44369773  0.35071912  0.92908279  1
  C  C103  1  0.49724107  0.27098209  0.63797061  1
  H  H104  1  0.43133821  0.46750086  0.59384504  1
  C  C105  1  0.39556566  0.41155056  0.96277775  1
  H  H106  1  0.25928526  0.46062572  0.67803640  1
  H  H107  1  0.35996551  0.37900602  0.50078503  1
  C  C108  1  0.43877637  0.45354488  0.52576608  1
  C  C109  1  0.23968643  0.42108673  0.54369211  1
  C  C110  1  0.49531490  0.31447530  0.80930996  1
  C  C111  1  0.23772595  0.47807848  0.61395471  1
  Zn  Zn112  1  0.15091722  0.25965748  0.99321319  1
  C  C113  1  0.47588075  0.63954148  0.30366612  1
  H  H114  1  0.05208603  0.71917715  0.15039382  1
  C  C115  1  0.31125558  0.55851756  0.18243394  1
  H  H116  1  0.16282163  0.53240151  0.37735439  1
  C  C117  1  0.36189521  0.57535408  0.12946245  1
  C  C118  1  0.36585619  0.60940391  0.31691269  1
  H  H119  1  0.27874884  0.56224664  0.31635605  1
  C  C120  1  0.02692597  0.55206968  0.02939693  1
  C  C121  1  0.31548451  0.57991959  0.27341903  1
  C  C122  1  0.41499927  0.60479066  0.16955059  1
  C  C123  1  0.08448534  0.57989025  0.00923795  1
  H  H124  1  0.46696585  0.60410905  0.04905121  1
  C  C125  1  0.41858773  0.62276373  0.26543398  1
  C  C126  1  0.46718939  0.61987281  0.11735495  1
  H  H127  1  0.12291778  0.55141664  0.03955513  1
  C  C128  1  0.08438240  0.57127012  0.32214434  1
  O  O129  1  0.10656615  0.63522304  0.31378366  1
  H  H130  1  0.38685606  0.71400016  0.11072869  1
  C  C131  1  0.18250739  0.51676193  0.44531102  1
  C  C132  1  0.03648409  0.55680323  0.40138576  1
  H  H133  1  0.36101597  0.55665237  0.06211558  1
  C  C134  1  0.25757514  0.51269142  0.14017519  1
  H  H135  1  0.36205639  0.61706155  0.38870420  1
  O  O136  1  0.43214168  0.71159838  0.48741248  1
  N  N137  1  0.25198895  0.50812358  0.04875858  1
  H  H138  1  0.02144861  0.50267092  0.07944450  1
  O  O139  1  0.09759636  0.50996293  0.27135000  1
  C  C140  1  0.03585029  0.74856158  0.20813689  1
  O  O141  1  0.05880649  0.73405377  0.47404452  1
  H  H142  1  0.48168352  0.64538359  0.37706847  1
  C  C143  1  0.00569766  0.59907338  0.46703711  1
  H  H144  1  0.47491407  0.74476169  0.01405844  1
  C  C145  1  0.09089486  0.63801081  0.94180323  1
  C  C146  1  0.36773759  0.57455295  0.64520579  1
  H  H147  1  0.20835734  0.59838835  0.65310944  1
  C  C148  1  0.16175083  0.71149831  0.84669601  1
  O  O149  1  0.33185695  0.61418911  0.60015607  1
  C  C150  1  0.15236319  0.66165281  0.91844533  1
  O  O151  1  0.38351723  0.63721262  0.92029570  1
  C  C152  1  0.03884795  0.66063496  0.88686622  1
  O  O153  1  0.43531447  0.72764184  0.84907032  1
  N  N154  1  0.46159584  0.55468518  0.70849334  1
  Zn  Zn155  1  0.30981575  0.55187473  0.93382975  1
  C  C156  1  0.43807867  0.59672376  0.64448289  1
  C  C157  1  0.32649631  0.72845810  0.83776758  1
  C  C158  1  0.48232996  0.68891763  0.51815196  1
  C  C159  1  0.38635976  0.69613553  0.86829090  1
  N  N160  1  0.27878242  0.68860416  0.86634852  1
  C  C161  1  0.01886166  0.69481479  0.50604925  1
  H  H162  1  0.19054892  0.64160613  0.95951664  1
  C  C163  1  0.21174827  0.55454263  0.60052529  1
  C  C164  1  0.22886310  0.73048127  0.83012148  1
  O  O165  1  0.34652627  0.51980617  0.69128875  1
  C  C166  1  0.48617128  0.64025946  0.59840716  1
  Zn  Zn167  1  0.35497869  0.74481399  0.56679509  1
  C  C168  1  0.05309383  0.71073723  0.81174757  1
  H  H169  1  0.30983431  0.74459007  0.99001025  1
  C  C170  1  0.11096655  0.73401650  0.79121169  1
  H  H171  1  0.49714768  0.50180139  0.86943700  1
  H  H172  1  0.01636550  0.72998526  0.76735619  1
  O  O173  1  0.20668713  0.73931738  0.60230892  1
  H  H174  1  0.16571136  0.63075182  0.50088926  1
  C  C175  1  0.18577975  0.57265728  0.51516060  1
  O  O176  1  0.21525678  0.83451152  0.33329943  1
  C  C177  1  0.20222132  0.90207810  0.35431131  1
  C  C178  1  0.19539832  0.91918775  0.45003543  1
  C  C179  1  0.36287455  0.77260809  0.10582572  1
  H  H180  1  0.37286587  0.96060501  0.20828638  1
  O  O181  1  0.19075814  0.95912229  0.29456106  1
  C  C182  1  0.06815173  0.81489923  0.24136873  1
  C  C183  1  0.04580795  0.85872386  0.31566401  1
  H  H184  1  0.07223817  0.91173324  0.33051748  1
  C  C185  1  0.32238650  0.79258925  0.03954228  1
  C  C186  1  0.36136691  0.91321676  0.15741328  1
  C  C187  1  0.29709363  0.87442957  0.02934591  1
  C  C188  1  0.31829434  0.93811689  0.09036829  1
  H  H189  1  0.10848100  0.83336480  0.20771245  1
  H  H190  1  0.40878448  0.82135501  0.22517595  1
  C  C191  1  0.38199433  0.83567050  0.16499236  1
  O  O192  1  0.39888177  0.98604219  0.41039734  1
  N  N193  1  0.17783930  0.99337309  0.47138449  1
  H  H194  1  0.23107303  0.84306478  0.92307209  1
  O  O195  1  0.33064829  0.92101830  0.71421536  1
  C  C196  1  0.22978840  0.97113400  0.95852354  1
  N  N197  1  0.16110462  0.98103323  0.81472066  1
  O  O198  1  0.38714993  0.81755978  0.67048198  1
  O  O199  1  0.27379047  0.75864069  0.50110116  1
  N  N200  1  0.24568890  0.79049787  0.77451388  1
  Zn  Zn201  1  0.19699895  0.89209940  0.73486930  1
  C  C202  1  0.30525534  0.78927557  0.78013612  1
  Zn  Zn203  1  0.46615210  0.80612596  0.73728357  1
  C  C204  1  0.20644632  0.87723344  0.53043189  1
  O  O205  1  0.07781787  0.94211240  0.68256635  1
  C  C206  1  0.34449319  0.85260935  0.71370394  1
  C  C207  1  0.22939037  0.78290776  0.54723050  1
  N  N208  1  0.19927568  0.92375691  0.59914595  1
  H  H209  1  0.11894347  0.75736088  0.72536243  1
  C  C210  1  0.25042932  0.89139651  0.96564346  1
  H  H211  1  0.03155879  0.94958571  0.58418611  1
  C  C212  1  0.18485068  0.99777856  0.56195753  1
  N  N213  1  0.64406685  0.06209432  0.34225044  1
  C  C214  1  0.61086298  0.12928375  0.31908508  1
  O  O215  1  0.80323232  0.21069067  0.03320397  1
  H  H216  1  0.69048404  0.03529602  0.08091177  1
  N  N217  1  0.68674262  0.12671766  0.21996916  1
  O  O218  1  0.52263580  0.19761235  0.34298450  1
  C  C219  1  0.80209058  0.05524339  0.25050490  1
  C  C220  1  0.55722173  0.14609214  0.37275495  1
  C  C221  1  0.63755524  0.16796166  0.24587198  1
  Zn  Zn222  1  0.73155092  0.15733495  0.10492250  1
  C  C223  1  0.85400055  0.01615633  0.21812144  1
  C  C224  1  0.74532585  0.01182391  0.26324247  1
  H  H225  1  0.89694569  0.04959035  0.21812076  1
  N  N226  1  0.98590073  0.19189289  0.15618806  1
  C  C227  1  0.69361136  0.06782692  0.27929142  1
  Zn  Zn228  1  0.98994132  0.13738412  0.00721059  1
  H  H229  1  0.80527932  0.12099819  0.25821471  1
  C  C230  1  0.95848300  0.04816942  0.41228555  1
  H  H231  1  0.73102518  0.13566702  0.44533615  1
  C  C232  1  0.76503047  0.18377481  0.42864327  1
  O  O233  1  0.54221704  0.11103718  0.44591408  1
  C  C234  1  0.81214295  0.20538673  0.48876094  1
  H  H235  1  0.97126884  0.10003420  0.37121061  1
  C  C236  1  0.89988087  0.01766546  0.42176933  1
  Zn  Zn237  1  0.64643457  0.02726866  0.48226822  1
  H  H238  1  0.86393146  0.04383374  0.38165893  1
  H  H239  1  0.72103201  0.22599170  0.31202012  1
  C  C240  1  0.75946496  0.23551529  0.35593092  1
  C  C241  1  0.74255133  0.11757473  0.73241474  1
  H  H242  1  0.81925647  0.17421753  0.55314546  1
  C  C243  1  0.77428787  0.18363029  0.76582480  1
  O  O244  1  0.53533477  0.16252973  0.99811994  1
  H  H245  1  0.95274485  0.07810655  0.61764008  1
  C  C246  1  0.62667470  0.17585301  0.66775850  1
  C  C247  1  0.96350100  0.18517480  0.69566578  1
  H  H248  1  0.69379322  0.11262381  0.74133875  1
  C  C249  1  0.83836930  0.18469879  0.74482538  1
  C  C250  1  0.84502350  0.02952009  0.90881341  1
  C  C251  1  0.65132288  0.19513859  0.58466906  1
  C  C252  1  0.83230756  0.05620003  0.65845167  1
  Zn  Zn253  1  0.53329554  0.13572834  0.85366787  1
  N  N254  1  0.57394099  0.07135547  0.74743395  1
  H  H255  1  0.61908455  0.20837286  0.80526801  1
  C  C256  1  0.59117002  0.10002445  0.66651532  1
  C  C257  1  0.82205504  0.09561349  0.95787752  1
  H  H258  1  0.63351803  0.15870005  0.52858413  1
  H  H259  1  0.85358848  0.00512390  0.61801726  1
  C  C260  1  0.86709577  0.12325384  0.68680233  1
  H  H261  1  0.75582303  0.22438795  0.81342517  1
  C  C262  1  0.77225382  0.05481534  0.68605588  1
  C  C263  1  0.92890043  0.12192609  0.65760282  1
  N  N264  1  0.58778093  0.04407813  0.59238469  1
  O  O265  1  0.96073357  0.04004993  0.92146995  1
  C  C266  1  0.63961320  0.22446181  0.74291037  1
  C  C267  1  0.93548881  0.24291615  0.75241031  1
  C  C268  1  0.91599363  0.01010393  0.88230482  1
  O  O269  1  0.89729140  0.19764478  0.98144380  1
  C  C270  1  0.84432898  0.17256297  0.98987179  1
  N  N271  1  0.76314335  0.07961103  0.97382766  1
  H  H272  1  0.50787651  0.23930571  0.50346071  1
  C  C273  1  0.97934171  0.26909972  0.19354008  1
  C  C274  1  0.89104759  0.36349074  0.19947890  1
  O  O275  1  0.59637626  0.29741607  0.18647142  1
  C  C276  1  0.93929886  0.33219157  0.15100684  1
  H  H277  1  0.66230890  0.41148173  0.37690076  1
  C  C278  1  0.85637689  0.42766731  0.16602350  1
  O  O279  1  0.68500126  0.26421564  0.14434601  1
  H  H280  1  0.88596755  0.34047350  0.26666777  1
  C  C281  1  0.60593148  0.41812251  0.05774814  1
  C  C282  1  0.88334556  0.39316692  0.40133016  1
  H  H283  1  0.57130415  0.31792180  0.38597686  1
  C  C284  1  0.92958852  0.40298104  0.46441478  1
  H  H285  1  0.87452993  0.44392682  0.35668202  1
  H  H286  1  0.70151422  0.41617390  0.09873254  1
  C  C287  1  0.97307614  0.47698642  0.45772167  1
  H  H288  1  0.80541795  0.45020974  0.28696818  1
  C  C289  1  0.79859080  0.30173700  0.33917049  1
  C  C290  1  0.86905807  0.45414844  0.07275587  1
  C  C291  1  0.59075685  0.35012411  0.44386985  1
  H  H292  1  0.79556802  0.33163846  0.27342310  1
  H  H293  1  0.59065658  0.38566763  0.11785729  1
  C  C294  1  0.85392118  0.26904120  0.48076301  1
  C  C295  1  0.66905836  0.43517338  0.04912373  1
  C  C296  1  0.63945461  0.40106064  0.43609532  1
  C  C297  1  0.81228408  0.46737568  0.21925359  1
  C  C298  1  0.95030902  0.35673662  0.05993177  1
  C  C299  1  0.50449178  0.47178213  0.39767489  1
  C  C300  1  0.84514028  0.32313765  0.40053722  1
  C  C301  1  0.90878963  0.40687167  0.01580768  1
  H  H302  1  0.98828436  0.33210234  0.02632354  1
  H  H303  1  0.51066109  0.45029476  0.21172399  1
  H  H304  1  0.70230923  0.47824624  0.49651076  1
  C  C305  1  0.63683984  0.25035558  0.18658928  1
  H  H306  1  0.65981270  0.46536644  0.65603592  1
  H  H307  1  0.58403383  0.40205899  0.75792426  1
  C  C308  1  0.56844464  0.33464009  0.52953106  1
  H  H309  1  0.81657079  0.44445440  0.71324791  1
  C  C310  1  0.56411338  0.45112008  0.99875722  1
  H  H311  1  0.67709383  0.34234252  0.87504706  1
  H  H312  1  0.91253695  0.41712529  0.94404369  1
  H  H313  1  0.85613963  0.30872996  0.79812916  1
  C  C314  1  0.74913848  0.39061420  0.80230605  1
  C  C315  1  0.64057923  0.43175153  0.59740663  1
  C  C316  1  0.56419393  0.37185043  0.69736921  1
  C  C317  1  0.59067169  0.38061720  0.61201326  1
  C  C318  1  0.77913885  0.40214927  0.71876353  1
  C  C319  1  0.68314604  0.28769796  0.73826349  1
  C  C320  1  0.70008907  0.33852351  0.81043561  1
  C  C321  1  0.51687564  0.31880089  0.71090463  1
  C  C322  1  0.71565250  0.30116447  0.65348239  1
  C  C323  1  0.76594398  0.35525764  0.64413684  1
  H  H324  1  0.78973935  0.36082998  0.57699857  1
  H  H325  1  0.71484942  0.27368032  0.51465798  1
  C  C326  1  0.69385531  0.25698859  0.57891521  1
  H  H327  1  0.76376636  0.42938473  0.85722799  1
  H  H328  1  0.95695376  0.29527759  0.78495170  1
  H  H329  1  0.96691690  0.36319000  0.59101245  1
  C  C330  1  0.58797382  0.49337803  0.92207618  1
  N  N331  1  0.51214742  0.26045590  0.87054365  1
  C  C332  1  0.93481021  0.35278948  0.54058068  1
  C  C333  1  0.89729406  0.28776546  0.54782134  1
  H  H334  1  0.89664983  0.26070215  0.61382377  1
  C  C335  1  0.52326976  0.27839577  0.55418229  1
  C  C336  1  0.69491951  0.47415908  0.97712185  1
  H  H337  1  0.74595586  0.47630822  0.97442566  1
  C  C338  1  0.87492112  0.25131779  0.76881577  1
  H  H339  1  0.51789365  0.42773148  0.99971542  1
  C  C340  1  0.66188219  0.44186988  0.51092991  1
  C  C341  1  0.72851276  0.60565147  0.39498917  1
  H  H342  1  0.74465750  0.55575655  0.22818493  1
  O  O343  1  0.53125038  0.70944915  0.48206747  1
  H  H344  1  0.56015175  0.65732250  0.10951803  1
  C  C345  1  0.95558876  0.64550105  0.22355754  1
  C  C346  1  0.66322306  0.59636814  0.36371569  1
  C  C347  1  0.52103528  0.64615905  0.15422762  1
  H  H348  1  0.54504356  0.50284370  0.36447778  1
  C  C349  1  0.90339014  0.61824522  0.26674762  1
  H  H350  1  0.82916331  0.69964874  0.14949781  1
  N  N351  1  0.81756224  0.62720491  0.47147430  1
  C  C352  1  0.98419637  0.71861406  0.25161469  1
  H  H353  1  0.76551812  0.60619338  0.06387073  1
  C  C354  1  0.83140671  0.51967972  0.03766236  1
  H  H355  1  0.93002867  0.56663663  0.00746365  1
  O  O356  1  0.62114557  0.60625919  0.41794730  1
  C  C357  1  0.87948687  0.66848740  0.33636895  1
  C  C358  1  0.82261289  0.63597713  0.38321531  1
  O  O359  1  0.65514766  0.58004369  0.28640439  1
  N  N360  1  0.76954718  0.62089626  0.33808626  1
  C  C361  1  0.78914387  0.55539966  0.09561582  1
  H  H362  1  0.88009495  0.56342415  0.24392175  1
  H  H363  1  0.57093478  0.66701145  0.27283407  1
  C  C364  1  0.75992518  0.61022204  0.48025433  1
  C  C365  1  0.52437435  0.65036436  0.24587321  1
  C  C366  1  0.77791566  0.53045301  0.18578780  1
  C  C367  1  0.90546674  0.73969134  0.36902071  1
  H  H368  1  0.97151947  0.60964905  0.16721900  1
  O  O369  1  0.87263570  0.53064450  0.83634063  1
  O  O370  1  0.68431514  0.59348993  0.59874415  1
  N  N371  1  0.53825053  0.62178339  0.63588861  1
  H  H372  1  0.54061202  0.67347672  0.90610067  1
  H  H373  1  0.71609354  0.56535922  0.81525707  1
  C  C374  1  0.66913467  0.54681810  0.83288192  1
  C  C375  1  0.55141775  0.73237591  0.93150931  1
  H  H376  1  0.64591417  0.60195843  0.70669374  1
  C  C377  1  0.87139217  0.65194563  0.75086829  1
  O  O378  1  0.70491396  0.74926023  0.76635213  1
  Zn  Zn379  1  0.62725364  0.68646196  0.54003203  1
  N  N380  1  0.96540833  0.54986988  0.50293006  1
  C  C381  1  0.56577470  0.55349966  0.78012092  1
  O  O382  1  0.90462217  0.51733955  0.70325672  1
  C  C383  1  0.52223919  0.57068883  0.70484354  1
  H  H384  1  0.94159564  0.66757842  0.88274847  1
  N  N385  1  0.87638607  0.67995063  0.66851625  1
  Zn  Zn386  1  0.89003192  0.60389624  0.56229479  1
  C  C387  1  0.85175605  0.71768081  0.80745625  1
  O  O388  1  0.84230434  0.68528487  0.96810276  1
  C  C389  1  0.74044957  0.59221902  0.57957469  1
  O  O390  1  0.77736217  0.58361180  0.63584038  1
  C  C391  1  0.88619410  0.55820253  0.76457641  1
  C  C392  1  0.62791892  0.57043384  0.76858220  1
  H  H393  1  0.83749252  0.53732929  0.96839175  1
  O  O394  1  0.63463054  0.74439023  0.67145833  1
  C  C395  1  0.83436719  0.73167458  0.90865470  1
  C  C396  1  0.97970286  0.63830720  0.91229064  1
  H  H397  1  0.63528179  0.74052660  0.86161651  1
  O  O398  1  0.98466978  0.71672240  0.56529038  1
  C  C399  1  0.65435139  0.50409929  0.91076960  1
  H  H400  1  0.52587312  0.52006928  0.52130374  1
  C  C401  1  0.54677251  0.51983001  0.86011765  1
  C  C402  1  0.97502861  0.58533555  0.98515283  1
  O  O403  1  0.67536831  0.77724904  0.47208422  1
  C  C404  1  0.79344273  0.89234210  0.21504367  1
  H  H405  1  0.69874255  0.89982974  0.25919053  1
  C  C406  1  0.78801204  0.80714872  0.20375247  1
  O  O407  1  0.67132913  0.89986829  0.42040569  1
  H  H408  1  0.74478993  0.77941566  0.22019324  1
  C  C409  1  0.59487406  0.87091166  0.03148733  1
  C  C410  1  0.53816815  0.83552662  0.04865300  1
  C  C411  1  0.89201609  0.94603975  0.47571293  1
  H  H412  1  0.79919260  0.92716729  0.43947646  1
  C  C413  1  0.83441457  0.90775736  0.48404037  1
  H  H414  1  0.94688015  0.91395832  0.15102924  1
  C  C415  1  0.73982239  0.92970122  0.24819824  1
  C  C416  1  0.89228581  0.80256295  0.15103397  1
  H  H417  1  0.97300402  0.87438987  0.41492296  1
  H  H418  1  0.51299662  0.86169527  0.10259636  1
  C  C419  1  0.90376828  0.88515994  0.16726282  1
  H  H420  1  0.88755869  0.76891695  0.42856043  1
  C  C421  1  0.85498753  0.93126244  0.19915385  1
  C  C422  1  0.95959381  0.76909333  0.32819592  1
  C  C423  1  0.99177280  0.83765952  0.35927350  1
  C  C424  1  0.62084276  0.94150382  0.07831526  1
  C  C425  1  0.68572419  0.85278571  0.47997220  1
  C  C426  1  0.83558725  0.76417775  0.16794052  1
  C  C427  1  0.67183665  0.98082593  0.04828004  1
  H  H428  1  0.60551187  0.96256388  0.14466054  1
  H  H429  1  0.92623833  0.76517095  0.12055065  1
  C  C430  1  0.51875822  0.77039531  0.00015667  1
  Zn  Zn431  1  0.79273738  0.88101059  0.80732320  1
  C  C432  1  0.87249730  0.82187230  0.60277610  1
  H  H433  1  0.96246462  0.84523684  0.65356605  1
  O  O434  1  0.52433627  0.87749180  0.81395109  1
  C  C435  1  0.52923406  0.95081348  0.81013626  1
  C  C436  1  0.60498540  0.76912109  0.90677985  1
  H  H437  1  0.70580134  0.84859193  0.87359233  1
  C  C438  1  0.73868856  0.97918205  0.65159740  1
  O  O439  1  0.52566636  0.84161168  0.62333909  1
  H  H440  1  0.78145805  0.81292127  0.54875667  1
  C  C441  1  0.70765178  0.85644591  0.65312424  1
  C  C442  1  0.93944791  0.91903517  0.53872772  1
  C  C443  1  0.99641348  0.95942570  0.53516195  1
  C  C444  1  0.82439306  0.84438642  0.54355672  1
  N  N445  1  0.73649787  0.91285642  0.70069230  1
  N  N446  1  0.71790917  0.96937847  0.56334259  1
  C  C447  1  0.92772606  0.86082491  0.60421392  1
  C  C448  1  0.70285929  0.88804618  0.56596438  1
  N  N449  1  0.80391072  0.97265529  0.89740694  1
  C  C450  1  0.53987586  0.90622910  0.58868381  1
  C  C451  1  0.85775382  0.75839102  0.67506390  1
  C  C452  1  0.67939410  0.88300442  0.92120576  1
  C  C453  1  0.56447353  0.97770723  0.63540632  1
  N  N454  1  0.84292848  0.78436591  0.76126318  1
  O  O455  1  0.91980881  0.96026674  0.82445505  1
  O  O456  1  0.81621770  0.80214528  0.92530746  1
  C  C457  1  0.62858361  0.83702701  0.95547333  1
  O  O458  1  0.53682827  0.91705911  0.50382084  1
  C  C459  1  0.70060352  0.94878735  0.96819506  1
  C  C460  1  0.75620152  0.99748435  0.94706986  1
  C  C461  1  0.56256570  0.99240628  0.72845531  1
  C  C462  1  0.68420985  0.77552281  0.69851293  1
  O  O463  1  0.51422197  0.99662866  0.86939384  1
