# generated using pymatgen
data_CuH3(C2O)4
_symmetry_space_group_name_H-M   'P 1'
_cell_length_a   10.44503397
_cell_length_b   20.33686450
_cell_length_c   19.28813223
_cell_angle_alpha   90.00000000
_cell_angle_beta   90.00000000
_cell_angle_gamma   90.00000000
_symmetry_Int_Tables_number   1
_chemical_formula_structural   CuH3(C2O)4
_chemical_formula_sum   'Cu16 H48 C128 O64'
_cell_volume   4097.17040139
_cell_formula_units_Z   16
loop_
 _symmetry_equiv_pos_site_id
 _symmetry_equiv_pos_as_xyz
  1  'x, y, z'
loop_
 _atom_site_type_symbol
 _atom_site_label
 _atom_site_symmetry_multiplicity
 _atom_site_fract_x
 _atom_site_fract_y
 _atom_site_fract_z
 _atom_site_occupancy
  O  O0  1  0.06662477  0.08888601  0.42231397  1
  O  O1  1  0.45570064  0.04859715  0.15619283  1
  O  O2  1  0.05873664  0.20371960  0.26942458  1
  C  C3  1  0.07789101  0.04104007  0.45638248  1
  O  O4  1  0.18135990  0.01882488  0.48391982  1
  Cu  Cu5  1  0.35840733  0.02374307  0.46309222  1
  C  C6  1  0.00852918  0.18373930  0.21037240  1
  H  H7  1  0.11745972  0.15291890  0.73774097  1
  Cu  Cu8  1  0.26060887  0.07450584  0.65193891  1
  O  O9  1  0.09542591  0.05434586  0.67741271  1
  C  C10  1  0.05983867  0.18326535  0.70571627  1
  H  H11  1  0.02899794  0.07393711  0.86951385  1
  O  O12  1  0.21938618  0.24559845  0.80502350  1
  C  C13  1  0.44870886  0.11133246  0.56454906  1
  C  C14  1  0.05677047  0.18773905  0.91379918  1
  O  O15  1  0.12052365  0.14100991  0.93169035  1
  O  O16  1  0.42279297  0.10180460  0.62676572  1
  O  O17  1  0.09454073  0.24873043  0.92317665  1
  O  O18  1  0.37192250  0.09906909  0.51622592  1
  O  O19  1  0.47980985  0.48741671  0.02473120  1
  C  C20  1  0.14453744  0.40053307  0.11185851  1
  H  H21  1  0.11865741  0.29812503  0.21185917  1
  O  O22  1  0.19326132  0.42354060  0.16361044  1
  O  O23  1  0.43934111  0.32218973  0.07256661  1
  C  C24  1  0.06123381  0.29197618  0.16392577  1
  H  H25  1  0.36717913  0.35494829  0.35335289  1
  C  C26  1  0.06950526  0.33789203  0.11008324  1
  Cu  Cu27  1  0.39134687  0.40416096  0.03423708  1
  O  O28  1  0.36126535  0.26510669  0.16195968  1
  C  C29  1  0.39601952  0.34374080  0.46708249  1
  H  H30  1  0.46044450  0.28764059  0.27316121  1
  C  C31  1  0.43664580  0.35488318  0.39714204  1
  H  H32  1  0.28978867  0.34950105  0.48218132  1
  C  C33  1  0.44040134  0.30279464  0.14023623  1
  O  O34  1  0.15987088  0.43023210  0.05335330  1
  C  C35  1  0.00144537  0.32664731  0.04898343  1
  H  H36  1  0.00845055  0.35877433  0.00223095  1
  C  C37  1  0.15368139  0.28182773  0.76542616  1
  Cu  Cu38  1  0.28190858  0.37223353  0.68419993  1
  O  O39  1  0.31054180  0.46126272  0.70453390  1
  O  O40  1  0.42068762  0.28483002  0.89203296  1
  O  O41  1  0.17532150  0.34307731  0.75994860  1
  O  O42  1  0.41636330  0.38376180  0.93507950  1
  Cu  Cu43  1  0.25433430  0.26996392  0.90060803  1
  C  C44  1  0.06506635  0.25053619  0.71605672  1
  O  O45  1  0.33310965  0.32824252  0.60768152  1
  C  C46  1  0.47960908  0.33669292  0.91137985  1
  C  C47  1  0.45473809  0.32130282  0.59395484  1
  O  O48  1  0.48367220  0.47544992  0.64015475  1
  C  C49  1  0.48954365  0.33314270  0.51917749  1
  C  C50  1  0.36930566  0.48983693  0.65731318  1
  C  C51  1  0.13643562  0.72704567  0.05060398  1
  H  H52  1  0.27784007  0.73331204  0.16157223  1
  O  O53  1  0.24924176  0.62078704  0.37820587  1
  C  C54  1  0.44875016  0.60309964  0.10641695  1
  C  C55  1  0.31025849  0.57778231  0.41756802  1
  C  C56  1  0.40959607  0.65485012  0.14788348  1
  H  H57  1  0.10264133  0.63385090  0.47624052  1
  O  O58  1  0.39872740  0.70392278  0.25966777  1
  C  C59  1  0.39745775  0.59660840  0.03998136  1
  C  C60  1  0.25534848  0.68578438  0.06085465  1
  C  C61  1  0.31212552  0.69534015  0.12683380  1
  C  C62  1  0.45775269  0.66345263  0.22073771  1
  Cu  Cu63  1  0.32974408  0.69258214  0.34833106  1
  C  C64  1  0.27143350  0.57166994  0.49200519  1
  O  O65  1  0.39933618  0.54698643  0.39941517  1
  Cu  Cu66  1  0.08284516  0.50788004  0.02128790  1
  C  C67  1  0.30281645  0.63786028  0.01545371  1
  C  C68  1  0.01232604  0.70500459  0.02954533  1
  H  H69  1  0.16108892  0.56371729  0.68799506  1
  C  C70  1  0.18751249  0.56439948  0.63204305  1
  H  H71  1  0.17206867  0.69655093  0.74105148  1
  C  C72  1  0.07601944  0.71811381  0.61430544  1
  C  C73  1  0.29346727  0.52988147  0.60932253  1
  C  C74  1  0.12874457  0.60444755  0.58346493  1
  C  C75  1  0.02614580  0.65553099  0.60316423  1
  H  H76  1  0.18028355  0.72599795  0.60720765  1
  H  H77  1  0.08948300  0.61311679  0.85045538  1
  C  C78  1  0.00110819  0.63966204  0.83618750  1
  O  O79  1  0.38157148  0.53580587  0.93711651  1
  H  H80  1  0.25880125  0.62698386  0.96623274  1
  O  O81  1  0.06479902  0.59301929  0.99185979  1
  O  O82  1  0.36789567  0.70323437  0.68166822  1
  C  C83  1  0.12217239  0.74074273  0.84542788  1
  C  C84  1  0.20145304  0.72768483  0.78690024  1
  C  C85  1  0.40292467  0.74044489  0.72450312  1
  C  C86  1  0.33548057  0.53322491  0.54070998  1
  C  C87  1  0.16376183  0.60638464  0.51218564  1
  H  H88  1  0.41573838  0.50414173  0.52211946  1
  C  C89  1  0.42436553  0.53746452  0.99548319  1
  H  H90  1  0.25254187  0.80271374  0.09408235  1
  H  H91  1  0.06945167  0.83144632  0.44942996  1
  C  C92  1  0.15274065  0.79096297  0.07999956  1
  C  C93  1  0.32201904  0.77809097  0.46587420  1
  H  H94  1  0.05037634  0.88327909  0.11301952  1
  C  C95  1  0.13417290  0.85238203  0.49129518  1
  C  C96  1  0.04831229  0.83441246  0.08751838  1
  O  O97  1  0.26141656  0.75598445  0.41178325  1
  O  O98  1  0.42217020  0.75655284  0.48420833  1
  H  H99  1  0.46926891  0.81938693  0.83035307  1
  C  C100  1  0.00943867  0.77406584  0.63192489  1
  C  C101  1  0.32351832  0.75439191  0.78921429  1
  C  C102  1  0.33216126  0.85988184  0.55930482  1
  C  C103  1  0.36877678  0.79943613  0.83777784  1
  C  C104  1  0.27963428  0.90993570  0.59978073  1
  C  C105  1  0.15195329  0.92736594  0.59083566  1
  H  H106  1  0.05288597  0.82288738  0.63979124  1
  O  O107  1  0.44785409  0.87800312  0.94671376  1
  C  C108  1  0.33004996  0.85634132  0.94943418  1
  H  H109  1  0.11124486  0.96644397  0.61928091  1
  C  C110  1  0.36531961  0.94736156  0.64812565  1
  H  H111  1  0.10969987  0.78416593  0.94900030  1
  C  C112  1  0.28280987  0.80964789  0.89291263  1
  O  O113  1  0.31613129  0.98822895  0.68674920  1
  C  C114  1  0.16302185  0.78064554  0.90067912  1
  H  H115  1  0.43327545  0.84705930  0.56232536  1
  O  O116  1  0.48487335  0.93509430  0.64546467  1
  C  C117  1  0.08293169  0.90258004  0.53412060  1
  C  C118  1  0.25943543  0.83108631  0.50517362  1
  O  O119  1  0.25676378  0.87900253  0.98931886  1
  C  C120  1  0.75803513  0.06837536  0.02430665  1
  C  C121  1  0.63528087  0.10758079  0.12225655  1
  H  H122  1  0.59582290  0.01880052  0.06343048  1
  O  O123  1  0.85131995  0.19457453  0.35893411  1
  O  O124  1  0.62971067  0.05332306  0.38470049  1
  H  H125  1  0.70755634  0.19650331  0.16664104  1
  C  C126  1  0.58940286  0.15768782  0.47274557  1
  C  C127  1  0.92362151  0.22289095  0.09216774  1
  C  C128  1  0.72358174  0.15763666  0.12808597  1
  C  C129  1  0.82924287  0.16604216  0.08185230  1
  O  O130  1  0.65154381  0.17254874  0.32864530  1
  C  C131  1  0.71013903  0.17685868  0.44808713  1
  H  H132  1  0.50856352  0.15011509  0.44059331  1
  C  C133  1  0.84894055  0.11883877  0.02882358  1
  C  C134  1  0.65076085  0.06324367  0.06878457  1
  Cu  Cu135  1  0.56868073  0.09356256  0.30656089  1
  H  H136  1  0.90328478  0.20264046  0.47313439  1
  C  C137  1  0.73606274  0.18662982  0.37384178  1
  H  H138  1  0.84242891  0.06950594  0.40907202  1
  C  C139  1  0.99392514  0.23464021  0.15418803  1
  O  O140  1  0.98705729  0.12753623  0.20026784  1
  O  O141  1  0.50855665  0.12832182  0.22850193  1
  C  C142  1  0.85015813  0.02151194  0.43614761  1
  C  C143  1  0.51739886  0.09615400  0.16910449  1
  C  C144  1  0.61793993  0.00456411  0.42553256  1
  C  C145  1  0.81128247  0.18574426  0.49279235  1
  O  O146  1  0.92544522  0.04971909  0.61117255  1
  C  C147  1  0.57308539  0.14015964  0.54133084  1
  C  C148  1  0.87352779  0.01646101  0.77228147  1
  C  C149  1  0.76888179  0.12815210  0.76841487  1
  H  H150  1  0.66289583  0.12678404  0.63893779  1
  C  C151  1  0.85934723  0.21991292  0.83757116  1
  C  C152  1  0.95010097  0.17481483  0.86295203  1
  C  C153  1  0.67502237  0.14367581  0.58838770  1
  H  H154  1  0.70475371  0.22795860  0.76122684  1
  C  C155  1  0.79399284  0.16953623  0.56572879  1
  C  C156  1  0.78000424  0.01327671  0.97551966  1
  H  H157  1  0.69510711  0.10779459  0.73460414  1
  C  C158  1  0.95965167  0.10772793  0.84265170  1
  C  C159  1  0.77326436  0.19419443  0.78497716  1
  C  C160  1  0.89148529  0.19225774  0.62139049  1
  C  C161  1  0.87098009  0.08493285  0.79628984  1
  H  H162  1  0.63014302  0.24131794  0.85227895  1
  O  O163  1  0.88575491  0.00708081  0.94493975  1
  H  H164  1  0.93142966  0.12330451  0.99794299  1
  C  C165  1  0.99933182  0.08234654  0.64784314  1
  C  C166  1  0.98032574  0.15319805  0.65668345  1
  C  C167  1  0.70861600  0.41522412  0.20818486  1
  C  C168  1  0.62717734  0.38517012  0.16237617  1
  C  C169  1  0.92868585  0.26906850  0.04019760  1
  C  C170  1  0.57080532  0.35023202  0.37859785  1
  O  O171  1  0.82077817  0.46341489  0.10870455  1
  C  C172  1  0.68938246  0.40794947  0.27991386  1
  C  C173  1  0.65685921  0.34012302  0.43567934  1
  H  H174  1  0.75720478  0.43695108  0.31347366  1
  C  C175  1  0.81085518  0.46019974  0.17471308  1
  O  O176  1  0.83947500  0.32785774  0.36155034  1
  C  C177  1  0.60273795  0.35943281  0.30254678  1
  Cu  Cu178  1  0.94568790  0.26284025  0.31637829  1
  C  C179  1  0.80185405  0.33388303  0.42540072  1
  H  H180  1  0.64837966  0.39335031  0.10488260  1
  O  O181  1  0.87951422  0.33677909  0.47071014  1
  C  C182  1  0.52178363  0.32583914  0.25620873  1
  O  O183  1  0.87879320  0.48941505  0.21262177  1
  C  C184  1  0.53391486  0.34026307  0.18486829  1
  C  C185  1  0.68346131  0.39472447  0.91887249  1
  H  H186  1  0.88275762  0.26015435  0.98853770  1
  C  C187  1  0.67791874  0.28769277  0.86329078  1
  H  H188  1  0.83156596  0.29250290  0.60115871  1
  C  C189  1  0.61479769  0.34053025  0.89379688  1
  H  H190  1  0.68904506  0.30938828  0.54098838  1
  C  C191  1  0.81524078  0.28677924  0.85732725  1
  H  H192  1  0.62892761  0.43572437  0.94157129  1
  C  C193  1  0.88136169  0.45353846  0.94028676  1
  O  O194  1  0.53016707  0.30544815  0.63682625  1
  C  C195  1  0.87957942  0.34074873  0.88263622  1
  C  C196  1  0.81721364  0.39548638  0.91247040  1
  C  C197  1  0.97806539  0.29000135  0.67784928  1
  O  O198  1  0.80493005  0.49833361  0.96577460  1
  H  H199  1  0.97942200  0.34495262  0.67828968  1
  C  C200  1  0.89376990  0.26019247  0.63345618  1
  O  O201  1  0.99808442  0.45703039  0.94124614  1
  H  H202  1  0.98394449  0.33586260  0.88270628  1
  C  C203  1  0.61999729  0.32848422  0.50275640  1
  Cu  Cu204  1  0.84499604  0.53906748  0.05032254  1
  O  O205  1  0.55214783  0.63458568  0.23939067  1
  H  H206  1  0.81584118  0.72687663  0.03296607  1
  C  C207  1  0.91018735  0.74739869  0.03738209  1
  C  C208  1  0.98516931  0.63744041  0.00796369  1
  H  H209  1  0.52344070  0.56852247  0.12575832  1
  O  O210  1  0.86803140  0.62237789  0.01123141  1
  C  C211  1  0.89510108  0.60480519  0.81532234  1
  C  C212  1  0.77663386  0.63855670  0.80981403  1
  Cu  Cu213  1  0.61559357  0.52920201  0.66401982  1
  O  O214  1  0.69748001  0.58304418  0.60197277  1
  C  C215  1  0.81357748  0.70569367  0.61723062  1
  H  H216  1  0.89107634  0.54954916  0.80633460  1
  C  C217  1  0.86861287  0.74067966  0.83889283  1
  C  C218  1  0.82260267  0.58775927  0.59549779  1
  C  C219  1  0.66235612  0.59646195  0.78951918  1
  C  C220  1  0.75588994  0.70463680  0.82482821  1
  O  O221  1  0.68995887  0.54308326  0.75297425  1
  C  C222  1  0.89087290  0.65173701  0.60369607  1
  O  O223  1  0.55513158  0.61123848  0.80106040  1
  H  H224  1  0.71299324  0.70061630  0.61313261  1
  H  H225  1  0.66181898  0.72972712  0.82395777  1
  O  O226  1  0.88901113  0.54072327  0.58820205  1
  C  C227  1  0.99123321  0.70882623  0.84826277  1
  O  O228  1  0.81422197  0.90313758  0.10314694  1
  C  C229  1  0.92895296  0.81097727  0.06460884  1
  C  C230  1  0.73272495  0.92343906  0.48791666  1
  O  O231  1  0.50793949  0.98135328  0.44621623  1
  C  C232  1  0.80962372  0.84984922  0.07574548  1
  C  C233  1  0.73955959  0.98263190  0.44955223  1
  O  O234  1  0.70078900  0.82129144  0.06127290  1
  H  H235  1  0.64240141  0.89706483  0.49304174  1
  Cu  Cu236  1  0.57976728  0.84962855  0.00193646  1
  C  C237  1  0.96123494  0.99757710  0.46472609  1
  C  C238  1  0.84173463  0.81165351  0.84684152  1
  Cu  Cu239  1  0.92403131  0.93403603  0.88934828  1
  O  O240  1  0.68637245  0.97853425  0.95571695  1
  O  O241  1  0.68404353  0.83022879  0.62113526  1
  O  O242  1  0.93904476  0.84954579  0.85427593  1
  O  O243  1  0.72951658  0.83360516  0.85057950  1
  C  C244  1  0.87448692  0.76517142  0.62942003  1
  Cu  Cu245  1  0.53948776  0.85089455  0.67893528  1
  Cu  Cu246  1  0.70129357  0.90185738  0.90724734  1
  O  O247  1  0.85035323  0.87693059  0.66640082  1
  Cu  Cu248  1  0.88950233  0.96357107  0.63953874  1
  C  C249  1  0.79722239  0.82585892  0.64314840  1
  O  O250  1  0.94703724  0.97917498  0.80684908  1
  H  H251  1  0.86265395  0.84953968  0.52702328  1
  O  O252  1  0.80703926  0.99102171  0.72467284  1
  O  O253  1  0.51507076  0.76979100  0.72077192  1
  C  C254  1  0.85265475  0.89890158  0.50696469  1
  C  C255  1  0.96546424  0.93670348  0.50057589  1
