# generated using pymatgen
data_Zn3H10C23N5O12
_symmetry_space_group_name_H-M   'P 1'
_cell_length_a   19.46406190
_cell_length_b   10.84850923
_cell_length_c   15.38450398
_cell_angle_alpha   90.00000000
_cell_angle_beta   90.00000000
_cell_angle_gamma   90.00000000
_symmetry_Int_Tables_number   1
_chemical_formula_structural   Zn3H10C23N5O12
_chemical_formula_sum   'Zn12 H40 C92 N20 O48'
_cell_volume   3248.53117179
_cell_formula_units_Z   4
loop_
 _symmetry_equiv_pos_site_id
 _symmetry_equiv_pos_as_xyz
  1  'x, y, z'
loop_
 _atom_site_type_symbol
 _atom_site_label
 _atom_site_symmetry_multiplicity
 _atom_site_fract_x
 _atom_site_fract_y
 _atom_site_fract_z
 _atom_site_occupancy
  O  O0  1  0.20616738  0.19547515  0.15691654  1
  C  C1  1  0.43437628  0.09615556  0.24290001  1
  Zn  Zn2  1  0.28323466  0.32888413  0.20611514  1
  O  O3  1  0.31566589  0.37080776  0.08046497  1
  C  C4  1  0.35006181  0.45818446  0.05041824  1
  H  H5  1  0.13419230  0.36986200  0.06094489  1
  C  C6  1  0.20878698  0.14522310  0.08354960  1
  C  C7  1  0.13290236  0.31020000  0.00390559  1
  C  C8  1  0.08767920  0.44641008  0.20953696  1
  O  O9  1  0.23476394  0.04274181  0.06994029  1
  H  H10  1  0.00934148  0.29196623  0.05728400  1
  C  C11  1  0.15739995  0.49914660  0.21061588  1
  C  C12  1  0.16677305  0.19765527  0.00766240  1
  C  C13  1  0.03498462  0.49253839  0.15587037  1
  C  C14  1  0.46992331  0.20095972  0.27102959  1
  C  C15  1  0.00763610  0.28737235  0.25971036  1
  C  C16  1  0.07245767  0.34287168  0.25877911  1
  H  H17  1  0.44559699  0.28764150  0.29104237  1
  O  O18  1  0.33004249  0.18187307  0.28372662  1
  O  O19  1  0.03785212  0.12117508  0.36155178  1
  H  H20  1  0.11792808  0.30542107  0.29446224  1
  C  C21  1  0.00044909  0.17811812  0.31596793  1
  O  O22  1  0.37399653  0.45032872  0.25218651  1
  C  C23  1  0.35729650  0.08529976  0.25026311  1
  O  O24  1  0.20040402  0.43432196  0.25333840  1
  O  O25  1  0.23222038  0.18850003  0.66131633  1
  C  C26  1  0.22168219  0.11620729  0.71528645  1
  N  N27  1  0.06331963  0.20870216  0.64291716  1
  C  C28  1  0.08083756  0.28281396  0.57086846  1
  H  H29  1  0.35143078  0.16981686  0.73214219  1
  H  H30  1  0.13551826  0.29680114  0.55352571  1
  N  N31  1  0.02871351  0.34147711  0.53283829  1
  C  C32  1  0.16720159  0.11958495  0.93458347  1
  O  O33  1  0.25951414  0.36631747  0.86123465  1
  C  C34  1  0.38018134  0.04499643  0.83615098  1
  C  C35  1  0.09725654  0.34865086  0.93140938  1
  C  C36  1  0.13111930  0.16383070  0.86147566  1
  C  C37  1  0.45123983  0.10854087  0.83535531  1
  C  C38  1  0.33615934  0.09496447  0.77472194  1
  C  C39  1  0.09482687  0.27294489  0.85420695  1
  C  C40  1  0.29914239  0.42795884  0.89934848  1
  O  O41  1  0.45790869  0.21095714  0.79915102  1
  O  O42  1  0.01582676  0.47666432  0.86433404  1
  H  H43  1  0.06750138  0.29708722  0.79314596  1
  C  C44  1  0.06150851  0.46809715  0.91894479  1
  C  C45  1  0.34727660  0.48946251  0.95418877  1
  O  O46  1  0.49981796  0.05829562  0.87271700  1
  H  H47  1  0.19283647  0.02902325  0.93780157  1
  C  C48  1  0.26827073  0.04809829  0.77764085  1
  Zn  Zn49  1  0.12415537  0.05980025  0.75208694  1
  H  H50  1  0.43982956  0.90775642  0.18773664  1
  C  C51  1  0.43386046  0.61942433  0.06502078  1
  O  O52  1  0.17155609  0.58984753  0.16635774  1
  O  O53  1  0.44820516  0.59229903  0.23537903  1
  H  H54  1  0.05059290  0.56994980  0.11081935  1
  C  C55  1  0.39396939  0.52763056  0.10580190  1
  Zn  Zn56  1  0.17410269  0.63042719  0.02767509  1
  H  H57  1  0.47443224  0.67048448  0.10047283  1
  O  O58  1  0.05096262  0.83881151  0.19611223  1
  C  C59  1  0.40239551  0.52297743  0.20242183  1
  H  H60  1  0.01410047  0.87855295  0.08662958  1
  C  C61  1  0.46793280  0.98865319  0.21469553  1
  O  O62  1  0.32573282  0.98923208  0.24086497  1
  O  O63  1  0.31482166  0.77258923  0.01216992  1
  O  O64  1  0.05720196  0.73994834  0.32993059  1
  C  C65  1  0.05497206  0.79018139  0.26360503  1
  C  C66  1  0.43102806  0.64040238  0.97707600  1
  C  C67  1  0.27735706  0.80343460  0.95517848  1
  C  C68  1  0.29629191  0.91335362  0.89405900  1
  C  C69  1  0.38987711  0.57999808  0.91606413  1
  C  C70  1  0.36341952  0.95527483  0.89692197  1
  H  H71  1  0.38654089  0.60896605  0.84768569  1
  H  H72  1  0.40358411  0.91064496  0.93972561  1
  C  C73  1  0.24800919  0.95091440  0.83190126  1
  O  O74  1  0.22001126  0.74499730  0.93973559  1
  C  C75  1  0.47723135  0.73699891  0.93520890  1
  H  H76  1  0.19989283  0.90245764  0.82576583  1
  O  O77  1  0.47059981  0.75995772  0.85363467  1
  O  O78  1  0.08015961  0.55717822  0.96653301  1
  C  C79  1  0.62372897  0.16234113  0.01507821  1
  C  C80  1  0.94924800  0.02556932  0.00544447  1
  C  C81  1  0.72245075  0.22051591  0.13090518  1
  C  C82  1  0.97200262  0.43728507  0.15688130  1
  C  C83  1  0.77410021  0.23460486  0.20453057  1
  C  C84  1  0.61595681  0.26368991  0.07152420  1
  H  H85  1  0.66180674  0.38974964  0.17167331  1
  C  C86  1  0.66667902  0.30078372  0.13116391  1
  C  C87  1  0.54817169  0.33526500  0.06170432  1
  O  O88  1  0.54166279  0.42587134  0.11014039  1
  C  C89  1  0.67913506  0.08432340  0.02368964  1
  C  C90  1  0.73141533  0.11422009  0.08058468  1
  H  H91  1  0.89908663  0.30899949  0.20851406  1
  C  C92  1  0.95309708  0.33924347  0.20845623  1
  C  C93  1  0.91777550  0.49823751  0.09242600  1
  H  H94  1  0.77353139  0.05020151  0.09338353  1
  O  O95  1  0.82221404  0.15027280  0.20745038  1
  O  O96  1  0.85986527  0.45987306  0.09016135  1
  C  C97  1  0.98065841  0.21564687  0.02657271  1
  O  O98  1  0.50882898  0.30801498  0.00160146  1
  N  N99  1  0.99368250  0.09999753  0.04952368  1
  H  H100  1  0.90144980  0.42347071  0.39259979  1
  Zn  Zn101  1  0.89449185  0.12886115  0.30416665  1
  O  O102  1  0.54862215  0.40004183  0.30965617  1
  O  O103  1  0.83628953  0.06698243  0.46370323  1
  C  C104  1  0.57792466  0.29881657  0.31533386  1
  C  C105  1  0.54012697  0.18592650  0.27689475  1
  O  O106  1  0.63033874  0.28111780  0.35543238  1
  H  H107  1  0.94134203  0.34046757  0.44954421  1
  O  O108  1  0.91189246  0.33845409  0.39750026  1
  O  O109  1  0.77880645  0.32200128  0.25106980  1
  H  H110  1  0.71840016  0.49572843  0.38696020  1
  C  C111  1  0.57713569  0.08087189  0.25540214  1
  H  H112  1  0.63152462  0.08279536  0.27328753  1
  C  C113  1  0.80055002  0.00005708  0.42159195  1
  O  O114  1  0.66516545  0.06767277  0.68789473  1
  C  C115  1  0.97224027  0.32013098  0.58386828  1
  Zn  Zn116  1  0.83695182  0.47864824  0.53524674  1
  C  C117  1  0.88087212  0.29654084  0.65932006  1
  C  C118  1  0.68456219  0.43208885  0.59799367  1
  C  C119  1  0.95562982  0.18911031  0.72602587  1
  N  N120  1  0.90297384  0.35443895  0.59564871  1
  C  C121  1  0.56936457  0.39218824  0.66082001  1
  C  C122  1  0.63413838  0.47034239  0.65670000  1
  H  H123  1  0.67651376  0.35180312  0.55189811  1
  N  N124  1  0.88932630  0.22242670  0.72586891  1
  H  H125  1  0.74058813  0.06324643  0.56512208  1
  O  O126  1  0.55879246  0.30668857  0.61396575  1
  C  C127  1  0.99738081  0.23570527  0.65707012  1
  O  O128  1  0.52928434  0.41956981  0.72392930  1
  C  C129  1  0.69619602  0.33505602  0.83876520  1
  C  C130  1  0.79913605  0.42776984  0.88556567  1
  Zn  Zn131  1  0.80709231  0.17508255  0.80777466  1
  C  C132  1  0.66689805  0.44735747  0.87645946  1
  C  C133  1  0.91008051  0.11035287  0.94913495  1
  N  N134  1  0.59877922  0.46827679  0.89727664  1
  Zn  Zn135  1  0.90593586  0.41756310  0.87935234  1
  N  N136  1  0.85844747  0.05703020  0.90015912  1
  N  N137  1  0.76659538  0.33013066  0.84357697  1
  N  N138  1  0.65617405  0.23275582  0.81376656  1
  H  H139  1  0.60049062  0.24777697  0.81543380  1
  N  N140  1  0.93330371  0.23421197  0.96205824  1
  H  H141  1  0.58047382  0.13609361  0.97049912  1
  H  H142  1  0.66620276  0.14956529  0.77901253  1
  Zn  Zn143  1  0.51352332  0.35892762  0.85898544  1
  H  H144  1  0.99843251  0.11768629  0.84588603  1
  N  N145  1  0.98830700  0.09597065  0.78189372  1
  H  H146  1  0.95949811  0.01228689  0.78790063  1
  H  H147  1  0.97889251  0.73819448  0.07569290  1
  N  N148  1  0.98158485  0.82374167  0.04980069  1
  H  H149  1  0.85880134  0.85391828  0.11560088  1
  C  C150  1  0.84142454  0.80242398  0.17454855  1
  O  O151  1  0.93540912  0.59191925  0.04919142  1
  N  N152  1  0.77650816  0.74492215  0.18288330  1
  O  O153  1  0.65468516  0.58736891  0.15295038  1
  H  H154  1  0.69809149  0.58701761  0.18192701  1
  Zn  Zn155  1  0.69079096  0.73056988  0.07980406  1
  O  O156  1  0.64457354  0.86705561  0.18756109  1
  C  C157  1  0.58233162  0.87179114  0.19540443  1
  O  O158  1  0.54655026  0.77610856  0.18230727  1
  Zn  Zn159  1  0.56279135  0.57585426  0.23227180  1
  C  C160  1  0.53846212  0.98353460  0.22228657  1
  N  N161  1  0.88745846  0.76883011  0.23293341  1
  O  O162  1  0.61525117  0.65919485  0.33815960  1
  C  C163  1  0.69201175  0.85623553  0.41427496  1
  H  H164  1  0.96289816  0.61657315  0.46415789  1
  H  H165  1  0.70008011  0.81873600  0.35046866  1
  C  C166  1  0.87340522  0.63121669  0.37180430  1
  N  N167  1  0.73350415  0.60779991  0.29622133  1
  N  N168  1  0.82569788  0.55388113  0.40691709  1
  C  C169  1  0.63945435  0.79404418  0.46015669  1
  C  C170  1  0.76251277  0.55564980  0.36012505  1
  O  O171  1  0.54720067  0.66248568  0.45163661  1
  C  C172  1  0.73201585  0.94538573  0.45329696  1
  N  N173  1  0.93671147  0.64930696  0.41227153  1
  H  H174  1  0.97478490  0.69024902  0.37244309  1
  C  C175  1  0.60152605  0.69312586  0.41584441  1
  C  C176  1  0.85478638  0.69422140  0.29077702  1
  O  O177  1  0.81862453  0.98014881  0.34267059  1
  C  C178  1  0.78166484  0.67622717  0.26036402  1
  C  C179  1  0.64125866  0.57102330  0.71238815  1
  H  H180  1  0.56998966  0.79303629  0.57333006  1
  C  C181  1  0.61608461  0.83122072  0.54183204  1
  O  O182  1  0.92895793  0.67558209  0.69920178  1
  C  C183  1  0.70252037  0.63435302  0.71817693  1
  C  C184  1  0.65645650  0.92480870  0.57536321  1
  H  H185  1  0.80826049  0.65714322  0.66527777  1
  C  C186  1  0.75811961  0.60745847  0.66210894  1
  C  C187  1  0.94445748  0.75957956  0.74196888  1
  O  O188  1  0.57821904  0.93680891  0.69462392  1
  C  C189  1  0.71417866  0.98314466  0.53610241  1
  C  C190  1  0.63148944  0.98111759  0.65849771  1
  C  C191  1  0.74564131  0.50451322  0.60693494  1
  C  C192  1  0.85459579  0.93223997  0.90963757  1
  N  N193  1  0.66455288  0.60831888  0.97188553  1
  O  O194  1  0.76027602  0.79382293  0.79482146  1
  Zn  Zn195  1  0.85343610  0.64968017  0.96878523  1
  C  C196  1  0.68340427  0.97502647  0.96684178  1
  Zn  Zn197  1  0.56590330  0.89428639  0.83738879  1
  N  N198  1  0.88174008  0.84159360  0.95460857  1
  H  H199  1  0.81127053  0.88903421  0.87569469  1
  O  O200  1  0.64998939  0.76673709  0.81815772  1
  N  N201  1  0.78337349  0.53172736  0.92339773  1
  C  C202  1  0.60050194  0.56222351  0.95299207  1
  C  C203  1  0.71274857  0.53323494  0.92620158  1
  O  O204  1  0.51523455  0.80255228  0.97926962  1
  C  C205  1  0.70543676  0.74188397  0.78154560  1
  H  H206  1  0.60234151  0.58919862  0.76126333  1
  H  H207  1  0.55527380  0.59967412  0.98251736  1
  O  O208  1  0.65751228  0.98900578  0.89449999  1
  C  C209  1  0.93583967  0.89256805  0.99837497  1
  O  O210  1  0.71520117  0.88624592  0.99711979  1
  O  O211  1  0.95862267  0.84451080  0.78625693  1
