# generated using pymatgen
data_ZnH5C8N3O2
_symmetry_space_group_name_H-M   'P 1'
_cell_length_a   15.75507680
_cell_length_b   28.92293868
_cell_length_c   15.65046783
_cell_angle_alpha   90.00000000
_cell_angle_beta   90.00000000
_cell_angle_gamma   90.00000000
_symmetry_Int_Tables_number   1
_chemical_formula_structural   ZnH5C8N3O2
_chemical_formula_sum   'Zn32 H160 C256 N96 O64'
_cell_volume   7131.65401401
_cell_formula_units_Z   32
loop_
 _symmetry_equiv_pos_site_id
 _symmetry_equiv_pos_as_xyz
  1  'x, y, z'
loop_
 _atom_site_type_symbol
 _atom_site_label
 _atom_site_symmetry_multiplicity
 _atom_site_fract_x
 _atom_site_fract_y
 _atom_site_fract_z
 _atom_site_occupancy
  H  H0  1  0.27086253  0.10720670  0.20849968  1
  C  C1  1  0.14482707  0.14619687  0.27524069  1
  C  C2  1  0.49522262  0.07551481  0.44986694  1
  O  O3  1  0.29770476  0.07781309  0.17451370  1
  C  C4  1  0.44841208  0.13600072  0.10214758  1
  C  C5  1  0.17379428  0.16621748  0.15280105  1
  C  C6  1  0.14115125  0.09221289  0.01739414  1
  N  N7  1  0.11071818  0.15681143  0.20098078  1
  N  N8  1  0.07648078  0.09066330  0.05470996  1
  N  N9  1  0.34437679  0.17161619  0.47320418  1
  O  O10  1  0.17506205  0.03194563  0.19900131  1
  N  N11  1  0.40976900  0.12416959  0.03557014  1
  Zn  Zn12  1  0.25665531  0.13492879  0.42018430  1
  N  N13  1  0.22288949  0.14577969  0.30449122  1
  C  C14  1  0.35413227  0.04437526  0.35214004  1
  Zn  Zn15  1  0.32371435  0.16981891  0.24791210  1
  N  N16  1  0.24617062  0.16792484  0.13709085  1
  H  H17  1  0.06544415  0.11280720  0.10483618  1
  H  H18  1  0.08735426  0.13878903  0.31623137  1
  N  N19  1  0.39077767  0.19851456  0.33948679  1
  H  H20  1  0.41243663  0.08737131  0.24693265  1
  C  C21  1  0.39346526  0.19595323  0.42485818  1
  H  H22  1  0.19697179  0.23338799  0.06610482  1
  N  N23  1  0.43923179  0.16754085  0.16752145  1
  C  C24  1  0.24164234  0.04241401  0.22807893  1
  C  C25  1  0.27505846  0.03042264  0.31001920  1
  H  H26  1  0.06353781  0.19721110  0.30531832  1
  C  C27  1  0.41391624  0.07618761  0.31733615  1
  H  H28  1  0.42958217  0.21619113  0.30150463  1
  H  H29  1  0.26259329  0.07526879  0.12297054  1
  H  H30  1  0.03055446  0.06182550  0.39153060  1
  O  O31  1  0.05785319  0.21701493  0.35550682  1
  C  C32  1  0.15676366  0.24124620  0.00780935  1
  H  H33  1  0.44483607  0.21346230  0.45811080  1
  H  H34  1  0.09849385  0.17427055  0.00092488  1
  C  C35  1  0.43952060  0.04092776  0.48340114  1
  C  C36  1  0.36820763  0.02441472  0.43716815  1
  H  H37  1  0.06660175  0.20804917  0.48148066  1
  N  N38  1  0.01048490  0.02985677  0.37065231  1
  C  C39  1  0.21412328  0.00247457  0.35322062  1
  Zn  Zn40  1  0.29884867  0.15473812  0.00879444  1
  C  C41  1  0.48336484  0.09095656  0.36503345  1
  H  H42  1  0.00296349  0.24764617  0.06610083  1
  C  C43  1  0.36265808  0.07037283  0.69802349  1
  C  C44  1  0.35745810  0.23976201  0.73492778  1
  Zn  Zn45  1  0.40044624  0.15044942  0.80618765  1
  Zn  Zn46  1  0.45455345  0.08066057  0.95935815  1
  Zn  Zn47  1  0.07318669  0.00941062  0.91831972  1
  C  C48  1  0.22276352  0.06931742  0.91953797  1
  Zn  Zn49  1  0.18788173  0.01076570  0.74920195  1
  N  N50  1  0.39370197  0.03453548  0.87732235  1
  N  N51  1  0.18223250  0.03730455  0.88142937  1
  N  N52  1  0.31015656  0.03606682  0.75128716  1
  H  H53  1  0.05863222  0.19220375  0.63987384  1
  C  C54  1  0.10667719  0.22725961  0.52791193  1
  H  H55  1  0.27463793  0.08317611  0.88034185  1
  N  N56  1  0.10538781  0.02778630  0.65171923  1
  N  N57  1  0.37290064  0.19772270  0.71482904  1
  H  H58  1  0.34071039  0.05860481  0.63193670  1
  C  C59  1  0.36555209  0.04156138  0.80166317  1
  N  N60  1  0.14231144  0.06941145  0.52057133  1
  C  C61  1  0.32186392  0.22886352  0.88500826  1
  N  N62  1  0.37381346  0.11421143  0.69718344  1
  C  C63  1  0.05075791  0.22037783  0.90467161  1
  C  C64  1  0.13263785  0.05143654  0.59549876  1
  C  C65  1  0.20147337  0.09060377  0.56748687  1
  N  N66  1  0.33689299  0.18659368  0.89941335  1
  N  N67  1  0.21540194  0.10134622  0.98563586  1
  Zn  Zn68  1  0.34767913  0.16153278  0.60467222  1
  C  C69  1  0.09823627  0.21997138  0.61793056  1
  O  O70  1  0.00588227  0.14246188  0.91828618  1
  N  N71  1  0.25268950  0.11887048  0.53958835  1
  H  H72  1  0.37252876  0.01338609  0.92276358  1
  C  C73  1  0.14189219  0.24633022  0.68225643  1
  H  H74  1  0.13876525  0.24077072  0.75103671  1
  C  C75  1  0.10139673  0.20905783  0.97457652  1
  H  H76  1  0.00490407  0.07806750  0.52743310  1
  C  C77  1  0.00185718  0.17807121  0.88074565  1
  H  H78  1  0.29104708  0.24595750  0.94260033  1
  H  H79  1  0.44947056  0.03103251  0.55009146  1
  Zn  Zn80  1  0.16896391  0.42671751  0.45579496  1
  C  C81  1  0.22466124  0.31627938  0.01015209  1
  C  C82  1  0.15071321  0.41510744  0.27406971  1
  C  C83  1  0.37204228  0.42221738  0.02462319  1
  C  C84  1  0.30563910  0.32034342  0.14078045  1
  C  C85  1  0.29876755  0.31759433  0.44673764  1
  N  N86  1  0.19342040  0.44285188  0.22280704  1
  C  C87  1  0.24812016  0.29665655  0.38715343  1
  C  C88  1  0.17789357  0.26907382  0.40942275  1
  H  H89  1  0.44335563  0.34948273  0.26067726  1
  N  N90  1  0.32646610  0.43774891  0.09009925  1
  N  N91  1  0.32407456  0.34188796  0.20115642  1
  N  N92  1  0.13318931  0.40014606  0.34638730  1
  C  C93  1  0.23210897  0.45436608  0.29413149  1
  Zn  Zn94  1  0.20076438  0.45485949  0.08438747  1
  H  H95  1  0.35597929  0.33438043  0.42101227  1
  N  N96  1  0.25353565  0.45144836  0.37008342  1
  H  H97  1  0.34564502  0.45784915  0.14057253  1
  Zn  Zn98  1  0.05614910  0.35013562  0.35773302  1
  O  O99  1  0.28724612  0.29414810  0.07962491  1
  H  H100  1  0.33084678  0.37745125  0.18131232  1
  Zn  Zn101  1  0.35648321  0.47556585  0.42096477  1
  H  H102  1  0.26490883  0.30071967  0.31522512  1
  C  C103  1  0.12686771  0.25043282  0.33617541  1
  N  N104  1  0.48466186  0.47580634  0.42717619  1
  O  O105  1  0.14453013  0.25969266  0.26231557  1
  H  H106  1  0.02266926  0.33611526  0.07879222  1
  O  O107  1  0.49689373  0.35546051  0.28257247  1
  H  H108  1  0.10896138  0.49804764  0.44748547  1
  C  C109  1  0.49828846  0.42597144  0.01601788  1
  C  C110  1  0.16826536  0.25805398  0.49752811  1
  H  H111  1  0.05207391  0.39264880  0.77902022  1
  N  N112  1  0.21675522  0.44822613  0.56944378  1
  Zn  Zn113  1  0.41825193  0.41230505  0.82848481  1
  H  H114  1  0.22298076  0.30504958  0.69915046  1
  C  C115  1  0.22523480  0.43888343  0.89056643  1
  N  N116  1  0.27916665  0.41307457  0.83648417  1
  H  H117  1  0.32135576  0.41622064  0.97957850  1
  O  O118  1  0.32547730  0.35303073  0.66462038  1
  C  C119  1  0.48945279  0.32210271  0.74546135  1
  H  H120  1  0.44524746  0.30289982  0.78946622  1
  H  H121  1  0.46279844  0.36486153  0.60301666  1
  H  H122  1  0.43428840  0.45912837  0.65943556  1
  C  C123  1  0.00556192  0.32067001  0.52139999  1
  N  N124  1  0.43491932  0.41337735  0.96698278  1
  H  H125  1  0.48684735  0.29115122  0.53900995  1
  C  C126  1  0.28450020  0.31527331  0.53613883  1
  C  C127  1  0.22794748  0.44172381  0.79615747  1
  N  N128  1  0.06527189  0.41481460  0.53520392  1
  N  N129  1  0.18517620  0.46874719  0.74608420  1
  H  H130  1  0.29599296  0.46604739  0.66772417  1
  C  C131  1  0.05008590  0.26689464  0.86970499  1
  H  H132  1  0.40236558  0.39405359  0.55064425  1
  C  C133  1  0.29344653  0.45984809  0.59665487  1
  C  C134  1  0.03664257  0.37124268  0.54367901  1
  O  O135  1  0.42543502  0.36235204  0.54645068  1
  C  C136  1  0.21627824  0.28618519  0.56160256  1
  C  C137  1  0.43882453  0.46683384  0.59063409  1
  N  N138  1  0.48591378  0.36685128  0.74893492  1
  H  H139  1  0.15028875  0.37470264  0.88501037  1
  Zn  Zn140  1  0.11636830  0.45409039  0.63984482  1
  N  N141  1  0.36245581  0.46396854  0.54876474  1
  C  C142  1  0.10548682  0.34666501  0.86613904  1
  C  C143  1  0.33671680  0.34317235  0.59467851  1
  C  C144  1  0.19501949  0.28123001  0.65065037  1
  N  N145  1  0.18326003  0.45547159  0.95091110  1
  C  C146  1  0.10494560  0.30212410  0.90592252  1
  C  C147  1  0.04657468  0.35814414  0.80508269  1
  N  N148  1  0.01771864  0.33901963  0.59591924  1
  C  C149  1  0.15797303  0.28737996  0.97580513  1
  H  H150  1  0.33947028  0.26374930  0.68024624  1
  N  N151  1  0.48291604  0.47423165  0.81146487  1
  N  N152  1  0.33283783  0.25485903  0.81299742  1
  N  N153  1  0.01474837  0.49431517  0.66356932  1
  O  O154  1  0.23327075  0.35572798  0.99338550  1
  C  C155  1  0.16416706  0.69823199  0.31536770  1
  N  N156  1  0.00133699  0.55318184  0.11573949  1
  H  H157  1  0.28454553  0.52674578  0.26825883  1
  H  H158  1  0.45502055  0.50679253  0.06802076  1
  C  C159  1  0.06476558  0.52318049  0.13021528  1
  O  O160  1  0.45398708  0.62176568  0.17754056  1
  C  C161  1  0.39053480  0.68873428  0.46868269  1
  C  C162  1  0.43706843  0.72425994  0.43089261  1
  C  C163  1  0.18646115  0.72832002  0.08316534  1
  H  H164  1  0.29564212  0.71798862  0.03695968  1
  C  C165  1  0.29556049  0.63063132  0.29660387  1
  C  C166  1  0.25204702  0.71201596  0.29336929  1
  C  C167  1  0.31771671  0.67628812  0.28666526  1
  C  C168  1  0.21062595  0.61737063  0.31897366  1
  C  C169  1  0.14582658  0.64952487  0.32725193  1
  C  C170  1  0.00896872  0.71653085  0.35874017  1
  C  C171  1  0.04763508  0.51012356  0.42269027  1
  O  O172  1  0.24868073  0.69652694  0.04831451  1
  N  N173  1  0.37524656  0.52464895  0.17423591  1
  C  C174  1  0.08739030  0.66344294  0.09288222  1
  C  C175  1  0.35259699  0.52308753  0.25726859  1
  H  H176  1  0.19703799  0.57991610  0.32594584  1
  H  H177  1  0.13762774  0.63535206  0.08319192  1
  H  H178  1  0.46970415  0.70649552  0.15201656  1
  C  C179  1  0.10146468  0.71291439  0.09952482  1
  H  H180  1  0.38100641  0.68417062  0.26265072  1
  N  N181  1  0.06100433  0.53884454  0.35959040  1
  H  H182  1  0.34785518  0.60626824  0.28474981  1
  H  H183  1  0.07769956  0.63844973  0.33644763  1
  N  N184  1  0.39404588  0.50610067  0.31714153  1
  H  H185  1  0.06085192  0.51115946  0.20010213  1
  C  C186  1  0.09690916  0.73016626  0.33162033  1
  H  H187  1  0.31977395  0.68792988  0.46305307  1
  C  C188  1  0.45005714  0.50912544  0.13992007  1
  N  N189  1  0.11773505  0.50629805  0.07580644  1
  C  C190  1  0.00388736  0.65684368  0.10041746  1
  H  H191  1  0.01098262  0.58366413  0.26336983  1
  C  C192  1  0.02826835  0.74036695  0.12449081  1
  H  H193  1  0.41237046  0.65731338  0.04418390  1
  C  C194  1  0.47446377  0.65955789  0.01072988  1
  C  C195  1  0.48408384  0.74687548  0.00646129  1
  H  H196  1  0.08387188  0.72969326  0.65380204  1
  H  H197  1  0.25701080  0.71202064  0.80716941  1
  H  H198  1  0.40632767  0.67543256  0.78533094  1
  H  H199  1  0.22861101  0.74997613  0.63660168  1
  C  C200  1  0.27863283  0.58200962  0.88828140  1
  H  H201  1  0.38190130  0.55213409  0.62090174  1
  H  H202  1  0.18737074  0.63251440  0.78922339  1
  H  H203  1  0.34418199  0.61926717  0.69850205  1
  C  C204  1  0.10249431  0.67862495  0.79489181  1
  C  C205  1  0.39678738  0.71177579  0.78982186  1
  O  O206  1  0.24118486  0.58649687  0.59920858  1
  C  C207  1  0.41783130  0.58267835  0.60183775  1
  N  N208  1  0.32505952  0.60369198  0.82878768  1
  N  N209  1  0.21471548  0.55483850  0.87654190  1
  O  O210  1  0.07061794  0.66015914  0.73406423  1
  N  N211  1  0.25273020  0.57291723  0.70776156  1
  C  C212  1  0.07456365  0.72325292  0.83209683  1
  Zn  Zn213  1  0.14172067  0.52246162  0.95561746  1
  O  O214  1  0.18212146  0.65931069  0.82884818  1
  C  C215  1  0.42934469  0.65218298  0.51924064  1
  C  C216  1  0.30543299  0.59947914  0.74395843  1
  C  C217  1  0.28044924  0.62271962  0.57320035  1
  H  H218  1  0.18045032  0.71914971  0.91774622  1
  C  C219  1  0.37522121  0.62021642  0.56237825  1
  N  N220  1  0.03305784  0.55954072  0.96952943  1
  C  C221  1  0.31575306  0.73393011  0.79769293  1
  O  O222  1  0.24010060  0.65516846  0.54594047  1
  N  N223  1  0.49240001  0.62305796  0.98187680  1
  Zn  Zn224  1  0.16710526  0.53300567  0.76512343  1
  H  H225  1  0.29686229  0.58726544  0.95518180  1
  N  N226  1  0.03603747  0.54384082  0.76981220  1
  C  C227  1  0.46947217  0.73943227  0.78244331  1
  H  H228  1  0.43890421  0.51500727  0.90673828  1
  C  C229  1  0.12905695  0.74114372  0.89460344  1
  C  C230  1  0.48549608  0.51236489  0.85228184  1
  H  H231  1  0.43225288  0.95926221  0.24903679  1
  O  O232  1  0.41114563  0.76420812  0.24925365  1
  H  H233  1  0.05735606  0.79957763  0.33189058  1
  N  N234  1  0.04056071  0.93319994  0.15733698  1
  C  C235  1  0.16626946  0.86234243  0.42822672  1
  C  C236  1  0.10940430  0.88585040  0.36523137  1
  O  O237  1  0.03545237  0.87710138  0.36118873  1
  H  H238  1  0.27543026  0.89841243  0.37690180  1
  O  O239  1  0.14655543  0.91431251  0.30227148  1
  H  H240  1  0.10866855  0.80102952  0.14355980  1
  O  O241  1  0.20697430  0.76724401  0.10058686  1
  C  C242  1  0.25314756  0.87282020  0.42368872  1
  H  H243  1  0.20854541  0.82965293  0.29794820  1
  C  C244  1  0.11309306  0.77712293  0.31700614  1
  C  C245  1  0.34604198  0.78492651  0.26025060  1
  C  C246  1  0.23431786  0.98597929  0.43371317  1
  C  C247  1  0.30731699  0.99513222  0.48172178  1
  C  C248  1  0.26083514  0.76025217  0.28234361  1
  C  C249  1  0.19524507  0.79167597  0.29598177  1
  H  H250  1  0.40736338  0.75502641  0.39734961  1
  C  C251  1  0.31469775  0.85248738  0.47351244  1
  O  O252  1  0.34899895  0.82765178  0.25812364  1
  N  N253  1  0.44648744  0.92276202  0.36119972  1
  H  H254  1  0.38190912  0.86290810  0.47175273  1
  H  H255  1  0.10260074  0.91596673  0.25898215  1
  H  H256  1  0.00447913  0.82750898  0.45741856  1
  N  N257  1  0.49830744  0.96370483  0.08650696  1
  C  C258  1  0.03459248  0.95170574  0.08315414  1
  C  C259  1  0.47914898  0.94369967  0.29299084  1
  C  C260  1  0.04304718  0.78787604  0.14039197  1
  C  C261  1  0.47508519  0.99517074  0.04581272  1
  H  H262  1  0.41961297  0.82944309  0.00605587  1
  C  C263  1  0.14258011  0.82644113  0.48653810  1
  N  N264  1  0.01566708  0.98138827  0.02275789  1
  C  C265  1  0.01367099  0.97415455  0.17054964  1
  H  H266  1  0.15352012  0.99301333  0.32422565  1
  C  C267  1  0.05531118  0.81201043  0.49546789  1
  O  O268  1  0.07080012  0.86977836  0.00677339  1
  O  O269  1  0.40937360  0.75055362  0.02089332  1
  H  H270  1  0.19029690  0.96045380  0.46566342  1
  O  O271  1  0.30655528  0.92900353  0.81401709  1
  O  O272  1  0.36686033  0.76202607  0.61577939  1
  C  C273  1  0.02031808  0.85351212  0.95923010  1
  O  O274  1  0.24232079  0.94435702  0.59603934  1
  C  C275  1  0.03403584  0.77483938  0.54810644  1
  O  O276  1  0.44847463  0.81447055  0.54768139  1
  C  C277  1  0.03415494  0.80913668  0.91126815  1
  C  C278  1  0.48718791  0.83070922  0.99157304  1
  H  H279  1  0.18289085  0.88975434  0.80734719  1
  C  C280  1  0.09650418  0.75808893  0.60719037  1
  C  C281  1  0.10857964  0.78474888  0.92614425  1
  C  C282  1  0.30494922  0.88890857  0.80760316  1
  N  N283  1  0.10704616  0.97504574  0.81752668  1
  C  C284  1  0.31136460  0.78173695  0.80106887  1
  C  C285  1  0.06599421  0.94182295  0.78423103  1
  H  H286  1  0.24974519  0.80088650  0.81375199  1
  C  C287  1  0.46599250  0.78908618  0.77826601  1
  O  O288  1  0.37783249  0.97887134  0.61110376  1
  C  C289  1  0.18234135  0.76675321  0.59696462  1
  H  H290  1  0.26803463  0.93006031  0.64631365  1
  C  C291  1  0.36920612  0.79589546  0.57292444  1
  N  N292  1  0.04276754  0.90625443  0.74362501  1
  C  C293  1  0.38262936  0.81096529  0.78614448  1
  C  C294  1  0.45568461  0.88693889  0.78229671  1
  O  O295  1  0.22067164  0.86436944  0.81329805  1
  C  C296  1  0.31832700  0.97349366  0.56567633  1
  C  C297  1  0.38096945  0.86105734  0.78837108  1
  H  H298  1  0.45349815  0.92453936  0.78306182  1
  C  C299  1  0.20867069  0.80487160  0.54002048  1
  H  H300  1  0.49080550  0.90391018  0.97501468  1
  C  C301  1  0.29353637  0.81616931  0.53163374  1
  H  H302  1  0.48647791  0.78804408  0.56208377  1
  H  H303  1  0.15087123  0.80137308  0.97377331  1
  C  C304  1  0.00154629  0.75062469  0.80537586  1
  H  H305  1  0.49537613  0.91619050  0.63383577  1
  N  N306  1  0.94563894  0.11560599  0.21324431  1
  C  C307  1  0.74243438  0.02608281  0.22174188  1
  H  H308  1  0.83664909  0.22735348  0.24248124  1
  H  H309  1  0.74961669  0.10376574  0.39273493  1
  Zn  Zn310  1  0.96700768  0.05017283  0.05561311  1
  H  H311  1  0.78539730  0.14508330  0.21405806  1
  O  O312  1  0.75969695  0.13303447  0.26705163  1
  H  H313  1  0.63697672  0.11944993  0.19727921  1
  H  H314  1  0.54606143  0.08968665  0.48951257  1
  H  H315  1  0.89917075  0.16631934  0.34711987  1
  C  C316  1  0.91312068  0.13155838  0.15467500  1
  N  N317  1  0.80437019  0.03868569  0.27401776  1
  C  C318  1  0.86585593  0.20846898  0.46038896  1
  Zn  Zn319  1  0.93936028  0.05099735  0.26431170  1
  H  H320  1  0.77478430  0.13454260  0.02831922  1
  N  N321  1  0.98163476  0.01486031  0.16467218  1
  C  C322  1  0.60331820  0.24360390  0.37641095  1
  C  C323  1  0.83698972  0.12176032  0.04863529  1
  N  N324  1  0.69901221  0.01740955  0.15003526  1
  C  C325  1  0.75425213  0.00721457  0.30949928  1
  C  C326  1  0.67888854  0.16713371  0.37685378  1
  C  C327  1  0.70416154  0.17023266  0.28794602  1
  Zn  Zn328  1  0.60410277  0.05852662  0.09465043  1
  C  C329  1  0.87076587  0.20080934  0.36984355  1
  O  O330  1  0.95408719  0.11525442  0.41898675  1
  Zn  Zn331  1  0.77158445  0.02922108  0.03120885  1
  N  N332  1  0.57744571  0.11277969  0.17044339  1
  C  C333  1  0.62474265  0.20094483  0.41694213  1
  H  H334  1  0.52742862  0.11545785  0.33244726  1
  N  N335  1  0.87346002  0.15418121  0.10063827  1
  O  O336  1  0.68490148  0.20022178  0.23990651  1
  N  N337  1  0.85359655  0.07807456  0.05116182  1
  C  C338  1  0.69914920  0.12631247  0.42154950  1
  C  C339  1  0.93898945  0.12800450  0.49118803  1
  C  C340  1  0.84303374  0.23472734  0.31006781  1
  C  C341  1  0.51021997  0.13898106  0.17003220  1
  N  N342  1  0.50557161  0.03700050  0.03644262  1
  H  H343  1  0.92453792  0.14626812  0.81087571  1
  H  H344  1  0.54147884  0.22138797  0.62083744  1
  C  C345  1  0.58063549  0.11370915  0.85003786  1
  C  C346  1  0.65988704  0.08430474  0.91673660  1
  H  H347  1  0.50712309  0.13857647  0.72129073  1
  N  N348  1  0.67523932  0.06731996  0.98331396  1
  Zn  Zn349  1  0.96794965  0.02213911  0.68932849  1
  N  N350  1  0.95140074  0.03416436  0.91775475  1
  H  H351  1  0.88329835  0.14678158  0.64673018  1
  C  C352  1  0.66707601  0.11597276  0.50098482  1
  H  H353  1  0.65318285  0.18015971  0.84812508  1
  C  C354  1  0.58279424  0.12946677  0.63243589  1
  C  C355  1  0.72471406  0.22457238  0.89069028  1
  N  N356  1  0.92253315  0.07655080  0.79707768  1
  O  O357  1  0.59517141  0.09120308  0.65494562  1
  C  C358  1  0.87007568  0.17539430  0.60230709  1
  O  O359  1  0.94525072  0.17889187  0.80449065  1
  N  N360  1  0.65832092  0.10595342  0.84321086  1
  C  C361  1  0.54959457  0.22317447  0.55072089  1
  H  H362  1  0.68612418  0.08319380  0.53384152  1
  O  O363  1  0.65052599  0.21432219  0.85138540  1
  H  H364  1  0.73384053  0.16385153  0.92227590  1
  C  C365  1  0.92236044  0.06450837  0.86511097  1
  O  O366  1  0.77080398  0.19176991  0.93245366  1
  C  C367  1  0.83515012  0.21535121  0.63258011  1
  O  O368  1  0.96423222  0.09717511  0.55946721  1
  O  O369  1  0.53203259  0.16109115  0.68389898  1
  O  O370  1  0.79952747  0.05422250  0.71157540  1
  C  C371  1  0.61553414  0.14653234  0.54903750  1
  C  C372  1  0.83823421  0.01960978  0.69320227  1
  C  C373  1  0.89460942  0.17111886  0.51585982  1
  N  N374  1  0.50707865  0.11738476  0.86851886  1
  C  C375  1  0.59428151  0.18846398  0.50476338  1
  H  H376  1  0.82027253  0.21720241  0.69991060  1
  H  H377  1  0.68016925  0.02043585  0.72212954  1
  H  H378  1  0.88915877  0.21545351  0.97803503  1
  H  H379  1  0.82465497  0.33566573  0.09226666  1
  O  O380  1  0.51235200  0.32711965  0.14422241  1
  H  H381  1  0.77129058  0.46671294  0.27201384  1
  O  O382  1  0.89236921  0.40051000  0.33352383  1
  C  C383  1  0.80292267  0.27565987  0.34075672  1
  C  C384  1  0.79712665  0.28640698  0.42673814  1
  C  C385  1  0.95555246  0.27301906  0.03973026  1
  N  N386  1  0.56916138  0.43319115  0.03563557  1
  C  C387  1  0.64068451  0.34568105  0.21724253  1
  H  H388  1  0.66087132  0.32158131  0.08761396  1
  C  C389  1  0.76405015  0.37563007  0.29376694  1
  Zn  Zn390  1  0.61596889  0.45474606  0.14939782  1
  C  C391  1  0.76953006  0.40192192  0.43943154  1
  C  C392  1  0.78001113  0.34385111  0.14414172  1
  H  H393  1  0.98649465  0.28586031  0.40732376  1
  C  C394  1  0.81365323  0.39444115  0.36169417  1
  N  N395  1  0.63593023  0.47465838  0.26376756  1
  O  O396  1  0.95956180  0.38202645  0.20217294  1
  C  C397  1  0.80821864  0.36886374  0.21711888  1
  C  C398  1  0.71180230  0.48093034  0.30134623  1
  C  C399  1  0.55386773  0.27394277  0.42510594  1
  N  N400  1  0.99983388  0.31432050  0.43947382  1
  C  C401  1  0.54938943  0.34134717  0.20657924  1
  C  C402  1  0.68172019  0.39118293  0.44476755  1
  C  C403  1  0.67540748  0.36261800  0.29761546  1
  C  C404  1  0.89509776  0.38284962  0.23805703  1
  H  H405  1  0.80592237  0.46689533  0.06937328  1
  H  H406  1  0.77232471  0.29786671  0.28835867  1
  C  C407  1  0.69118357  0.33616207  0.14484397  1
  H  H408  1  0.53643391  0.30891423  0.39479039  1
  C  C409  1  0.63189675  0.37549910  0.37520207  1
  H  H410  1  0.56339553  0.37136777  0.39048666  1
  C  C411  1  0.96875966  0.32153932  0.04254792  1
  N  N412  1  0.51237807  0.49290346  0.18507365  1
  Zn  Zn413  1  0.51963268  0.49241854  0.31477144  1
  H  H414  1  0.75601855  0.31640995  0.44762962  1
  H  H415  1  0.80090928  0.41250641  0.49797751  1
  C  C416  1  0.52591387  0.47053797  0.48871022  1
  N  N417  1  0.97647045  0.49862588  0.45674501  1
  C  C418  1  0.77185399  0.49977985  0.04614481  1
  H  H419  1  0.62482873  0.25351758  0.30937895  1
  C  C420  1  0.82543906  0.25177377  0.48715440  1
  C  C421  1  0.78944486  0.29640193  0.62350416  1
  C  C422  1  0.84553964  0.33265424  0.95141681  1
  N  N423  1  0.56960829  0.37894580  0.68378070  1
  O  O424  1  0.83446888  0.44672525  0.89019556  1
  C  C425  1  0.75552831  0.27055321  0.89789487  1
  C  C426  1  0.84428379  0.41051577  0.92057036  1
  C  C427  1  0.79774670  0.36630571  0.90570740  1
  C  C428  1  0.77244174  0.48340621  0.55706219  1
  N  N429  1  0.54971327  0.30218530  0.69691607  1
  O  O430  1  0.77062229  0.29745972  0.69752910  1
  H  H431  1  0.64669784  0.29805323  0.81967156  1
  C  C432  1  0.91840489  0.35307175  0.99553250  1
  O  O433  1  0.77699152  0.33968458  0.57323610  1
  C  C434  1  0.59784401  0.33673810  0.66546616  1
  N  N435  1  0.84604882  0.48788810  0.52047843  1
  Zn  Zn436  1  0.95914688  0.46294011  0.56192153  1
  H  H437  1  0.65102224  0.32489315  0.62317960  1
  C  C438  1  0.83228216  0.28340658  0.94810616  1
  Zn  Zn439  1  0.61047088  0.44243217  0.65760757  1
  C  C440  1  0.52372598  0.26490387  0.50873386  1
  C  C441  1  0.72239084  0.35224393  0.86006343  1
  N  N442  1  0.87788342  0.42713980  0.64500178  1
  N  N443  1  0.56723150  0.48268467  0.74583924  1
  C  C444  1  0.98684665  0.32470882  0.77421435  1
  C  C445  1  0.80510164  0.43176034  0.64994960  1
  C  C446  1  0.81931657  0.25406496  0.57921361  1
  H  H447  1  0.64526441  0.39786949  0.50582056  1
  O  O448  1  0.92034361  0.39842318  0.98276851  1
  N  N449  1  0.52167829  0.46296898  0.56966880  1
  N  N450  1  0.74136155  0.45637921  0.62076256  1
  H  H451  1  0.81793763  0.35913634  0.60397258  1
  C  C452  1  0.70488547  0.30586253  0.85797165  1
  H  H453  1  0.68214707  0.37670330  0.82843289  1
  H  H454  1  0.93573766  0.33950810  0.72885182  1
  C  C455  1  0.89038803  0.25331827  0.98838957  1
  C  C456  1  0.99021633  0.27833436  0.80093231  1
  H  H457  1  0.61508013  0.42612874  0.99352681  1
  H  H458  1  0.72221948  0.49947846  0.51685154  1
  H  H459  1  0.94355340  0.25565323  0.77820307  1
  C  C460  1  0.65394709  0.53744691  0.03271911  1
  H  H461  1  0.56781329  0.74650339  0.39224082  1
  C  C462  1  0.53282596  0.70622594  0.18433780  1
  C  C463  1  0.57152232  0.74832755  0.19082067  1
  O  O464  1  0.55461129  0.58098101  0.26299985  1
  H  H465  1  0.65335378  0.71174759  0.01736243  1
  C  C466  1  0.99967632  0.56219488  0.03632946  1
  N  N467  1  0.73970629  0.50762860  0.36597257  1
  H  H468  1  0.56803827  0.54626347  0.43457215  1
  H  H469  1  0.79439685  0.60929303  0.38848630  1
  C  C470  1  0.64646124  0.66963422  0.27129978  1
  C  C471  1  0.69241526  0.63333939  0.31243335  1
  C  C472  1  0.67552825  0.52676925  0.40169150  1
  O  O473  1  0.76715934  0.66491468  0.11180786  1
  H  H474  1  0.89803804  0.59740119  0.15444026  1
  N  N475  1  0.92319878  0.55168743  0.32473596  1
  O  O476  1  0.83700322  0.59963323  0.13534924  1
  C  C477  1  0.92470921  0.67489878  0.10999039  1
  H  H478  1  0.66228940  0.59797625  0.31319728  1
  Zn  Zn479  1  0.86424146  0.51973003  0.40771219  1
  N  N480  1  0.63043738  0.54892475  0.44650935  1
  H  H481  1  0.58150194  0.54093633  0.04346999  1
  C  C482  1  0.56717705  0.66687219  0.22709962  1
  C  C483  1  0.93780414  0.72449049  0.12453580  1
  C  C484  1  0.68885349  0.71579224  0.28318172  1
  C  C485  1  0.76308652  0.72083533  0.33078743  1
  H  H486  1  0.86980649  0.68474834  0.39854280  1
  C  C487  1  0.83723923  0.64884421  0.12096756  1
  C  C488  1  0.76776948  0.64087964  0.35849737  1
  C  C489  1  0.80689048  0.68339588  0.36886787  1
  H  H490  1  0.80774289  0.73967667  0.16095866  1
  O  O491  1  0.95885226  0.74776462  0.37309453  1
  N  N492  1  0.69120883  0.50194058  0.07560743  1
  C  C493  1  0.99554135  0.55787206  0.31557756  1
  H  H494  1  0.50775091  0.55790644  0.24630107  1
  C  C495  1  0.56772972  0.68894620  0.48274360  1
  C  C496  1  0.52661437  0.72262399  0.43158987  1
  H  H497  1  0.63763583  0.68749547  0.48140887  1
  C  C498  1  0.51699761  0.62445884  0.21668223  1
  O  O499  1  0.99330572  0.67376253  0.36773683  1
  N  N500  1  0.87107203  0.60876301  0.84444364  1
  Zn  Zn501  1  0.98963401  0.58658105  0.85254056  1
  Zn  Zn502  1  0.79422856  0.58012072  0.92290413  1
  H  H503  1  0.53532931  0.55412304  0.64493062  1
  H  H504  1  0.74154141  0.65603492  0.63647021  1
  H  H505  1  0.65476926  0.53849334  0.74436381  1
  C  C506  1  0.85081404  0.64102715  0.79938608  1
  H  H507  1  0.88214258  0.51920399  0.97760046  1
  O  O508  1  0.66955711  0.59181358  0.67110825  1
  H  H509  1  0.53357676  0.72275869  0.78457311  1
  C  C510  1  0.73172371  0.65064988  0.81812370  1
  O  O511  1  0.69531081  0.65846896  0.59415514  1
  Zn  Zn512  1  0.58668368  0.60617609  0.90718938  1
  C  C513  1  0.59748862  0.52341459  0.77366991  1
  N  N514  1  0.55285927  0.54288452  0.83804776  1
  N  N515  1  0.79467456  0.66767155  0.77037498  1
  N  N516  1  0.70782091  0.62369750  0.86898274  1
  C  C517  1  0.95265958  0.73377593  0.73473670  1
  C  C518  1  0.99318370  0.52350774  0.70991878  1
  C  C519  1  0.64316602  0.61997919  0.62078088  1
  N  N520  1  0.67264412  0.56562060  0.97094358  1
  C  C521  1  0.52192995  0.65568436  0.53219583  1
  O  O522  1  0.52273146  0.70588221  0.99944719  1
  C  C523  1  0.55690501  0.62068928  0.58658923  1
  H  H524  1  0.97214534  0.69845737  0.71291632  1
  C  C525  1  0.50536567  0.58363611  0.61550482  1
  N  N526  1  0.82078906  0.52437427  0.99568527  1
  H  H527  1  0.85063879  0.74524091  0.64221879  1
  C  C528  1  0.67713681  0.74612478  0.99291586  1
  H  H529  1  0.80598704  0.72260681  0.98256644  1
  O  O530  1  0.97719797  0.96895007  0.47773539  1
  C  C531  1  0.97325555  0.81902920  0.15380682  1
  N  N532  1  0.69573173  0.90711154  0.17970179  1
  C  C533  1  0.79486206  0.93680429  0.07298235  1
  Zn  Zn534  1  0.60183148  0.96308940  0.15899833  1
  Zn  Zn535  1  0.65899338  0.92040652  0.31419021  1
  H  H536  1  0.98931600  0.85722547  0.15883561  1
  H  H537  1  0.59295108  0.86065502  0.27380505  1
  O  O538  1  0.60307882  0.83702709  0.22264609  1
  C  C539  1  0.77350645  0.90458372  0.14230722  1
  O  O540  1  0.71797162  0.81695957  0.30876880  1
  H  H541  1  0.65727994  0.87799389  0.16682910  1
  C  C542  1  0.66677026  0.80101092  0.26545049  1
  C  C543  1  0.51021290  0.90197011  0.39571735  1
  N  N544  1  0.58012663  0.89119799  0.39465162  1
  N  N545  1  0.55474684  0.94334979  0.26278249  1
  H  H546  1  0.75639800  0.95322220  0.40459437  1
  N  N547  1  0.84681727  0.90614850  0.10651901  1
  N  N548  1  0.72655809  0.97202860  0.35496764  1
  H  H549  1  0.79832667  0.75477921  0.32832399  1
  H  H550  1  0.83308162  0.82746075  0.16609029  1
  C  C551  1  0.88740365  0.80333792  0.15773363  1
  H  H552  1  0.53739691  0.77671002  0.16179364  1
  N  N553  1  0.80391992  0.96483751  0.01071356  1
  C  C554  1  0.99410827  0.99747814  0.42871682  1
  C  C555  1  0.87269207  0.75450457  0.15510884  1
  C  C556  1  0.64349285  0.75482587  0.24413570  1
  H  H557  1  0.69261684  0.81005148  0.47074482  1
  C  C558  1  0.52853498  0.87211128  0.97397243  1
  C  C559  1  0.66467990  0.83011392  0.96145357  1
  H  H560  1  0.79942213  0.81751304  0.71369192  1
  N  N561  1  0.91602472  0.94190251  0.82833966  1
  C  C562  1  0.97690592  0.92305366  0.78280682  1
  C  C563  1  0.78246208  0.88641549  0.58266083  1
  C  C564  1  0.86721205  0.89934205  0.58920527  1
  O  O565  1  0.68541850  0.82928613  0.74073844  1
  C  C566  1  0.62348510  0.78580216  0.98204321  1
  C  C567  1  0.62765239  0.90172069  0.60603247  1
  C  C568  1  0.53244879  0.86474647  0.77000435  1
  H  H569  1  0.91592227  0.87528870  0.56580226  1
  C  C570  1  0.89019885  0.93938207  0.63285766  1
  C  C571  1  0.57990299  0.97100148  0.68297804  1
  Zn  Zn572  1  0.90419740  0.97327774  0.94241900  1
  C  C573  1  0.73191258  0.95912759  0.65937148  1
  C  C574  1  0.55951394  0.92997735  0.63702533  1
  C  C575  1  0.66546638  0.98623537  0.69402768  1
  C  C576  1  0.80411369  0.79669667  0.97095906  1
  C  C577  1  0.97676667  0.79443115  0.84426465  1
  H  H578  1  0.95782361  0.90715290  0.97479254  1
  O  O579  1  0.65076235  0.75781749  0.75561031  1
  C  C580  1  0.61450906  0.87121921  0.94731832  1
  H  H581  1  0.85263088  0.93239534  0.82340113  1
  C  C582  1  0.64953873  0.91501493  0.91194146  1
  H  H583  1  0.78397918  0.87128363  0.97213024  1
  O  O584  1  0.73241234  0.91410027  0.85659251  1
  O  O585  1  0.61951505  0.95170353  0.92349189  1
  H  H586  1  0.72819809  0.88260415  0.84632014  1
  C  C587  1  0.82472730  0.97220169  0.66113473  1
  C  C588  1  0.75429386  0.83708098  0.96993810  1
  H  H589  1  0.59360367  0.88488371  0.76540460  1
  C  C590  1  0.88249004  0.75646721  0.70038687  1
  C  C591  1  0.71254625  0.91486471  0.61677257  1
  O  O592  1  0.93888930  0.87751426  0.94694890  1
  C  C593  1  0.85516556  0.79772100  0.74179297  1
  H  H594  1  0.52844542  0.99163887  0.70955327  1
  H  H595  1  0.87426105  0.79930519  0.97751352  1
  H  H596  1  0.95991978  0.94732375  0.64223296  1
  C  C597  1  0.90123512  0.81638900  0.81042820  1
  H  H598  1  0.88153714  0.84974407  0.84052305  1
  H  H599  1  0.61446182  0.86870808  0.56736784  1
  C  C600  1  0.53877366  0.81727833  0.76920271  1
  C  C601  1  0.63171131  0.79882199  0.75648577  1
  H  H602  1  0.96887575  0.76346433  0.54749484  1
  C  C603  1  0.77896504  0.84168508  0.53934458  1
  O  O604  1  0.68581204  0.82399210  0.52462907  1
  C  C605  1  0.76406494  0.75303565  0.97860229  1
  C  C606  1  0.53467824  0.78909727  0.99535917  1
  O  O607  1  0.83625417  0.81959649  0.51356786  1
